
*** ChampSim Multicore Out-of-Order Simulator ***

Warmup Instructions: 100000000
Simulation Instructions: 100000000
Number of CPUs: 1
LLC sets: 2048
LLC ways: 16
Off-chip DRAM Size: 4096 MB Channels: 1 Width: 64-bit Data Rate: 3200 MT/s

CPU 0 runs /home/shubhayu/ChampSim/traces/403.gcc-48B.champsimtrace.xz
CPU 0 Bimodal branch predictor
Initialize DRRIP state
Assign rand_sets[0]: 454  LLC: 2048
rand_sets[0]: 454
Assign rand_sets[1]: 1662  LLC: 2048
rand_sets[1]: 1662
Assign rand_sets[2]: 1921  LLC: 2048
rand_sets[2]: 1921
Assign rand_sets[3]: 1131  LLC: 2048
rand_sets[3]: 1131
Assign rand_sets[4]: 331  LLC: 2048
rand_sets[4]: 331
Assign rand_sets[5]: 1531  LLC: 2048
rand_sets[5]: 1531
Assign rand_sets[6]: 482  LLC: 2048
rand_sets[6]: 482
Assign rand_sets[7]: 1275  LLC: 2048
rand_sets[7]: 1275
Assign rand_sets[8]: 1876  LLC: 2048
rand_sets[8]: 1876
Assign rand_sets[9]: 2038  LLC: 2048
rand_sets[9]: 2038
Assign rand_sets[10]: 701  LLC: 2048
rand_sets[10]: 701
Assign rand_sets[11]: 479  LLC: 2048
rand_sets[11]: 479
Assign rand_sets[12]: 892  LLC: 2048
rand_sets[12]: 892
Assign rand_sets[13]: 1820  LLC: 2048
rand_sets[13]: 1820
Assign rand_sets[14]: 1505  LLC: 2048
rand_sets[14]: 1505
Assign rand_sets[15]: 1159  LLC: 2048
rand_sets[15]: 1159
Assign rand_sets[16]: 513  LLC: 2048
rand_sets[16]: 513
Assign rand_sets[17]: 703  LLC: 2048
rand_sets[17]: 703
Assign rand_sets[18]: 561  LLC: 2048
rand_sets[18]: 561
Assign rand_sets[19]: 990  LLC: 2048
rand_sets[19]: 990
Assign rand_sets[20]: 342  LLC: 2048
rand_sets[20]: 342
Assign rand_sets[21]: 882  LLC: 2048
rand_sets[21]: 882
Assign rand_sets[22]: 15  LLC: 2048
rand_sets[22]: 15
Assign rand_sets[23]: 71  LLC: 2048
rand_sets[23]: 71
Assign rand_sets[24]: 1127  LLC: 2048
rand_sets[24]: 1127
Assign rand_sets[25]: 1382  LLC: 2048
rand_sets[25]: 1382
Assign rand_sets[26]: 647  LLC: 2048
rand_sets[26]: 647
Assign rand_sets[27]: 857  LLC: 2048
rand_sets[27]: 857
Assign rand_sets[28]: 1450  LLC: 2048
rand_sets[28]: 1450
Assign rand_sets[29]: 1160  LLC: 2048
rand_sets[29]: 1160
Assign rand_sets[30]: 1852  LLC: 2048
rand_sets[30]: 1852
Assign rand_sets[31]: 1881  LLC: 2048
rand_sets[31]: 1881
Assign rand_sets[32]: 1770  LLC: 2048
rand_sets[32]: 1770
Assign rand_sets[33]: 1622  LLC: 2048
rand_sets[33]: 1622
Assign rand_sets[34]: 275  LLC: 2048
rand_sets[34]: 275
Assign rand_sets[35]: 635  LLC: 2048
rand_sets[35]: 635
Assign rand_sets[36]: 466  LLC: 2048
rand_sets[36]: 466
Assign rand_sets[37]: 1413  LLC: 2048
rand_sets[37]: 1413
Assign rand_sets[38]: 417  LLC: 2048
rand_sets[38]: 417
Assign rand_sets[39]: 472  LLC: 2048
rand_sets[39]: 472
Assign rand_sets[40]: 1340  LLC: 2048
rand_sets[40]: 1340
Assign rand_sets[41]: 852  LLC: 2048
rand_sets[41]: 852
Assign rand_sets[42]: 1365  LLC: 2048
rand_sets[42]: 1365
Assign rand_sets[43]: 47  LLC: 2048
rand_sets[43]: 47
Assign rand_sets[44]: 823  LLC: 2048
rand_sets[44]: 823
Assign rand_sets[45]: 686  LLC: 2048
rand_sets[45]: 686
Assign rand_sets[46]: 1637  LLC: 2048
rand_sets[46]: 1637
Assign rand_sets[47]: 1115  LLC: 2048
rand_sets[47]: 1115
Assign rand_sets[48]: 986  LLC: 2048
rand_sets[48]: 986
Assign rand_sets[49]: 258  LLC: 2048
rand_sets[49]: 258
Assign rand_sets[50]: 633  LLC: 2048
rand_sets[50]: 633
Assign rand_sets[51]: 920  LLC: 2048
rand_sets[51]: 920
Assign rand_sets[52]: 204  LLC: 2048
rand_sets[52]: 204
Assign rand_sets[53]: 227  LLC: 2048
rand_sets[53]: 227
Assign rand_sets[54]: 1818  LLC: 2048
rand_sets[54]: 1818
Assign rand_sets[55]: 886  LLC: 2048
rand_sets[55]: 886
Assign rand_sets[56]: 1422  LLC: 2048
rand_sets[56]: 1422
Assign rand_sets[57]: 607  LLC: 2048
rand_sets[57]: 607
Assign rand_sets[58]: 217  LLC: 2048
rand_sets[58]: 217
Assign rand_sets[59]: 1945  LLC: 2048
rand_sets[59]: 1945
Assign rand_sets[60]: 143  LLC: 2048
rand_sets[60]: 143
Assign rand_sets[61]: 1311  LLC: 2048
rand_sets[61]: 1311
Assign rand_sets[62]: 319  LLC: 2048
rand_sets[62]: 319
Assign rand_sets[63]: 1846  LLC: 2048
rand_sets[63]: 1846
Heartbeat CPU 0 instructions: 10000002 cycles: 4169848 heartbeat IPC: 2.39817 cumulative IPC: 2.39817 (Simulation time: 0 hr 0 min 19 sec) 
Heartbeat CPU 0 instructions: 20000000 cycles: 8341524 heartbeat IPC: 2.39712 cumulative IPC: 2.39764 (Simulation time: 0 hr 0 min 39 sec) 
Heartbeat CPU 0 instructions: 30000001 cycles: 12511225 heartbeat IPC: 2.39825 cumulative IPC: 2.39785 (Simulation time: 0 hr 1 min 1 sec) 
Heartbeat CPU 0 instructions: 40000002 cycles: 16680663 heartbeat IPC: 2.39841 cumulative IPC: 2.39799 (Simulation time: 0 hr 1 min 22 sec) 
Heartbeat CPU 0 instructions: 50000002 cycles: 20855381 heartbeat IPC: 2.39537 cumulative IPC: 2.39746 (Simulation time: 0 hr 1 min 44 sec) 
Heartbeat CPU 0 instructions: 60000001 cycles: 25041762 heartbeat IPC: 2.3887 cumulative IPC: 2.396 (Simulation time: 0 hr 2 min 6 sec) 
Heartbeat CPU 0 instructions: 70000001 cycles: 29206620 heartbeat IPC: 2.40104 cumulative IPC: 2.39672 (Simulation time: 0 hr 2 min 29 sec) 
Heartbeat CPU 0 instructions: 80000001 cycles: 33371180 heartbeat IPC: 2.40121 cumulative IPC: 2.39728 (Simulation time: 0 hr 2 min 51 sec) 
Heartbeat CPU 0 instructions: 90000002 cycles: 37540259 heartbeat IPC: 2.39861 cumulative IPC: 2.39743 (Simulation time: 0 hr 3 min 13 sec) 
Heartbeat CPU 0 instructions: 100000001 cycles: 41716030 heartbeat IPC: 2.39477 cumulative IPC: 2.39716 (Simulation time: 0 hr 3 min 35 sec) 

Warmup complete CPU 0 instructions: 100000001 cycles: 41716030 (Simulation time: 0 hr 3 min 35 sec) 

Heartbeat CPU 0 instructions: 110000000 cycles: 49112980 heartbeat IPC: 1.35191 cumulative IPC: 1.35191 (Simulation time: 0 hr 3 min 58 sec) 
Heartbeat CPU 0 instructions: 120000000 cycles: 56536150 heartbeat IPC: 1.34713 cumulative IPC: 1.34952 (Simulation time: 0 hr 4 min 23 sec) 
Heartbeat CPU 0 instructions: 130000003 cycles: 63929466 heartbeat IPC: 1.35257 cumulative IPC: 1.35053 (Simulation time: 0 hr 4 min 47 sec) 
Heartbeat CPU 0 instructions: 140000002 cycles: 71336168 heartbeat IPC: 1.35013 cumulative IPC: 1.35043 (Simulation time: 0 hr 5 min 12 sec) 
Heartbeat CPU 0 instructions: 150000000 cycles: 78726997 heartbeat IPC: 1.35303 cumulative IPC: 1.35095 (Simulation time: 0 hr 5 min 35 sec) 
Heartbeat CPU 0 instructions: 160000001 cycles: 86116188 heartbeat IPC: 1.35333 cumulative IPC: 1.35135 (Simulation time: 0 hr 5 min 59 sec) 
Heartbeat CPU 0 instructions: 170000002 cycles: 93498289 heartbeat IPC: 1.35463 cumulative IPC: 1.35181 (Simulation time: 0 hr 6 min 23 sec) 
Heartbeat CPU 0 instructions: 180000000 cycles: 100874534 heartbeat IPC: 1.3557 cumulative IPC: 1.3523 (Simulation time: 0 hr 6 min 47 sec) 
Heartbeat CPU 0 instructions: 190000000 cycles: 108297853 heartbeat IPC: 1.34711 cumulative IPC: 1.35172 (Simulation time: 0 hr 7 min 11 sec) 
Heartbeat CPU 0 instructions: 200000002 cycles: 115720022 heartbeat IPC: 1.34732 cumulative IPC: 1.35128 (Simulation time: 0 hr 7 min 32 sec) 
Finished CPU 0 instructions: 100000001 cycles: 74003992 cumulative IPC: 1.35128 (Simulation time: 0 hr 7 min 32 sec) 

ChampSim completed all CPUs

Region of Interest Statistics

CPU 0 cumulative IPC: 1.35128 instructions: 100000001 cycles: 74003992
L1D TOTAL     ACCESS:   34207527  HIT:   34118433  MISS:      89094
L1D LOAD      ACCESS:   16476432  HIT:   16390670  MISS:      85762
L1D RFO       ACCESS:   17731095  HIT:   17727763  MISS:       3332
L1D PREFETCH  ACCESS:          0  HIT:          0  MISS:          0
L1D WRITEBACK ACCESS:          0  HIT:          0  MISS:          0
L1D PREFETCH  REQUESTED:          0  ISSUED:          0  USEFUL:          0  USELESS:          0
L1D AVERAGE MISS LATENCY: 64.5528 cycles
L1I TOTAL     ACCESS:   26340462  HIT:   26340462  MISS:          0
L1I LOAD      ACCESS:   26340462  HIT:   26340462  MISS:          0
L1I RFO       ACCESS:          0  HIT:          0  MISS:          0
L1I PREFETCH  ACCESS:          0  HIT:          0  MISS:          0
L1I WRITEBACK ACCESS:          0  HIT:          0  MISS:          0
L1I PREFETCH  REQUESTED:          0  ISSUED:          0  USEFUL:          0  USELESS:          0
L1I AVERAGE MISS LATENCY: -nan cycles
L2C TOTAL     ACCESS:      98041  HIT:      73542  MISS:      24499
L2C LOAD      ACCESS:      85762  HIT:      64318  MISS:      21444
L2C RFO       ACCESS:       3332  HIT:        288  MISS:       3044
L2C PREFETCH  ACCESS:          0  HIT:          0  MISS:          0
L2C WRITEBACK ACCESS:       8947  HIT:       8936  MISS:         11
L2C PREFETCH  REQUESTED:          0  ISSUED:          0  USEFUL:          0  USELESS:          0
L2C AVERAGE MISS LATENCY: 179.7 cycles
LLC TOTAL     ACCESS:      32143  HIT:       8153  MISS:      23990
LLC LOAD      ACCESS:      21444  HIT:        612  MISS:      20832
LLC RFO       ACCESS:       3044  HIT:          1  MISS:       3043
LLC PREFETCH  ACCESS:          0  HIT:          0  MISS:          0
LLC WRITEBACK ACCESS:       7655  HIT:       7540  MISS:        115
LLC PREFETCH  REQUESTED:          0  ISSUED:          0  USEFUL:          0  USELESS:          0
LLC AVERAGE MISS LATENCY: 152.724 cycles
Major fault: 0 Minor fault: 2907

DRAM Statistics
 CHANNEL 0
 RQ ROW_BUFFER_HIT:       4515  ROW_BUFFER_MISS:      19360
 DBUS_CONGESTED:        977
 WQ ROW_BUFFER_HIT:        899  ROW_BUFFER_MISS:       3085  FULL:          0

 AVG_CONGESTED_CYCLE: 5

CPU 0 Branch Prediction Accuracy: 99.3715% MPKI: 1.39981 Average ROB Occupancy at Mispredict: 36.7016

Branch types
NOT_BRANCH: 77728258 77.7283%
BRANCH_DIRECT_JUMP: 3021554 3.02155%
BRANCH_INDIRECT: 1481028 1.48103%
BRANCH_CONDITIONAL: 14722987 14.723%
BRANCH_DIRECT_CALL: 1514790 1.51479%
BRANCH_INDIRECT_CALL: 8297 0.008297%
BRANCH_RETURN: 1523087 1.52309%
BRANCH_OTHER: 0 0%

