
*** ChampSim Multicore Out-of-Order Simulator ***

Warmup Instructions: 100000000
Simulation Instructions: 100000000
Number of CPUs: 1
LLC sets: 2048
LLC ways: 16
Off-chip DRAM Size: 4096 MB Channels: 1 Width: 64-bit Data Rate: 3200 MT/s

CPU 0 runs /home/sai/ChampSim/traces/400.perlbench-41B.champsimtrace.xz
CPU 0 Bimodal branch predictor
L2C Signature Path Prefetcher
Initialize DRRIP state
Assign rand_sets[0]: 454  LLC: 2048
rand_sets[0]: 454
Assign rand_sets[1]: 1662  LLC: 2048
rand_sets[1]: 1662
Assign rand_sets[2]: 1921  LLC: 2048
rand_sets[2]: 1921
Assign rand_sets[3]: 1131  LLC: 2048
rand_sets[3]: 1131
Assign rand_sets[4]: 331  LLC: 2048
rand_sets[4]: 331
Assign rand_sets[5]: 1531  LLC: 2048
rand_sets[5]: 1531
Assign rand_sets[6]: 482  LLC: 2048
rand_sets[6]: 482
Assign rand_sets[7]: 1275  LLC: 2048
rand_sets[7]: 1275
Assign rand_sets[8]: 1876  LLC: 2048
rand_sets[8]: 1876
Assign rand_sets[9]: 2038  LLC: 2048
rand_sets[9]: 2038
Assign rand_sets[10]: 701  LLC: 2048
rand_sets[10]: 701
Assign rand_sets[11]: 479  LLC: 2048
rand_sets[11]: 479
Assign rand_sets[12]: 892  LLC: 2048
rand_sets[12]: 892
Assign rand_sets[13]: 1820  LLC: 2048
rand_sets[13]: 1820
Assign rand_sets[14]: 1505  LLC: 2048
rand_sets[14]: 1505
Assign rand_sets[15]: 1159  LLC: 2048
rand_sets[15]: 1159
Assign rand_sets[16]: 513  LLC: 2048
rand_sets[16]: 513
Assign rand_sets[17]: 703  LLC: 2048
rand_sets[17]: 703
Assign rand_sets[18]: 561  LLC: 2048
rand_sets[18]: 561
Assign rand_sets[19]: 990  LLC: 2048
rand_sets[19]: 990
Assign rand_sets[20]: 342  LLC: 2048
rand_sets[20]: 342
Assign rand_sets[21]: 882  LLC: 2048
rand_sets[21]: 882
Assign rand_sets[22]: 15  LLC: 2048
rand_sets[22]: 15
Assign rand_sets[23]: 71  LLC: 2048
rand_sets[23]: 71
Assign rand_sets[24]: 1127  LLC: 2048
rand_sets[24]: 1127
Assign rand_sets[25]: 1382  LLC: 2048
rand_sets[25]: 1382
Assign rand_sets[26]: 647  LLC: 2048
rand_sets[26]: 647
Assign rand_sets[27]: 857  LLC: 2048
rand_sets[27]: 857
Assign rand_sets[28]: 1450  LLC: 2048
rand_sets[28]: 1450
Assign rand_sets[29]: 1160  LLC: 2048
rand_sets[29]: 1160
Assign rand_sets[30]: 1852  LLC: 2048
rand_sets[30]: 1852
Assign rand_sets[31]: 1881  LLC: 2048
rand_sets[31]: 1881
Assign rand_sets[32]: 1770  LLC: 2048
rand_sets[32]: 1770
Assign rand_sets[33]: 1622  LLC: 2048
rand_sets[33]: 1622
Assign rand_sets[34]: 275  LLC: 2048
rand_sets[34]: 275
Assign rand_sets[35]: 635  LLC: 2048
rand_sets[35]: 635
Assign rand_sets[36]: 466  LLC: 2048
rand_sets[36]: 466
Assign rand_sets[37]: 1413  LLC: 2048
rand_sets[37]: 1413
Assign rand_sets[38]: 417  LLC: 2048
rand_sets[38]: 417
Assign rand_sets[39]: 472  LLC: 2048
rand_sets[39]: 472
Assign rand_sets[40]: 1340  LLC: 2048
rand_sets[40]: 1340
Assign rand_sets[41]: 852  LLC: 2048
rand_sets[41]: 852
Assign rand_sets[42]: 1365  LLC: 2048
rand_sets[42]: 1365
Assign rand_sets[43]: 47  LLC: 2048
rand_sets[43]: 47
Assign rand_sets[44]: 823  LLC: 2048
rand_sets[44]: 823
Assign rand_sets[45]: 686  LLC: 2048
rand_sets[45]: 686
Assign rand_sets[46]: 1637  LLC: 2048
rand_sets[46]: 1637
Assign rand_sets[47]: 1115  LLC: 2048
rand_sets[47]: 1115
Assign rand_sets[48]: 986  LLC: 2048
rand_sets[48]: 986
Assign rand_sets[49]: 258  LLC: 2048
rand_sets[49]: 258
Assign rand_sets[50]: 633  LLC: 2048
rand_sets[50]: 633
Assign rand_sets[51]: 920  LLC: 2048
rand_sets[51]: 920
Assign rand_sets[52]: 204  LLC: 2048
rand_sets[52]: 204
Assign rand_sets[53]: 227  LLC: 2048
rand_sets[53]: 227
Assign rand_sets[54]: 1818  LLC: 2048
rand_sets[54]: 1818
Assign rand_sets[55]: 886  LLC: 2048
rand_sets[55]: 886
Assign rand_sets[56]: 1422  LLC: 2048
rand_sets[56]: 1422
Assign rand_sets[57]: 607  LLC: 2048
rand_sets[57]: 607
Assign rand_sets[58]: 217  LLC: 2048
rand_sets[58]: 217
Assign rand_sets[59]: 1945  LLC: 2048
rand_sets[59]: 1945
Assign rand_sets[60]: 143  LLC: 2048
rand_sets[60]: 143
Assign rand_sets[61]: 1311  LLC: 2048
rand_sets[61]: 1311
Assign rand_sets[62]: 319  LLC: 2048
rand_sets[62]: 319
Assign rand_sets[63]: 1846  LLC: 2048
rand_sets[63]: 1846
Heartbeat CPU 0 instructions: 10000003 cycles: 4831976 heartbeat IPC: 2.06955 cumulative IPC: 2.06955 (Simulation time: 0 hr 1 min 1 sec) 
Heartbeat CPU 0 instructions: 20000001 cycles: 9618488 heartbeat IPC: 2.0892 cumulative IPC: 2.07933 (Simulation time: 0 hr 2 min 8 sec) 
Heartbeat CPU 0 instructions: 30000001 cycles: 13923019 heartbeat IPC: 2.32313 cumulative IPC: 2.15471 (Simulation time: 0 hr 3 min 1 sec) 
Heartbeat CPU 0 instructions: 40000001 cycles: 18511827 heartbeat IPC: 2.17922 cumulative IPC: 2.16078 (Simulation time: 0 hr 4 min 5 sec) 
Heartbeat CPU 0 instructions: 50000003 cycles: 22999611 heartbeat IPC: 2.22827 cumulative IPC: 2.17395 (Simulation time: 0 hr 5 min 36 sec) 
Heartbeat CPU 0 instructions: 60000000 cycles: 26955359 heartbeat IPC: 2.52797 cumulative IPC: 2.2259 (Simulation time: 0 hr 6 min 53 sec) 
Heartbeat CPU 0 instructions: 70000003 cycles: 31336489 heartbeat IPC: 2.28252 cumulative IPC: 2.23382 (Simulation time: 0 hr 8 min 18 sec) 
Heartbeat CPU 0 instructions: 80000000 cycles: 35590599 heartbeat IPC: 2.35067 cumulative IPC: 2.24778 (Simulation time: 0 hr 9 min 35 sec) 
Heartbeat CPU 0 instructions: 90000000 cycles: 39884982 heartbeat IPC: 2.32862 cumulative IPC: 2.25649 (Simulation time: 0 hr 10 min 58 sec) 
Heartbeat CPU 0 instructions: 100000001 cycles: 44259019 heartbeat IPC: 2.28622 cumulative IPC: 2.25943 (Simulation time: 0 hr 12 min 26 sec) 

Warmup complete CPU 0 instructions: 100000001 cycles: 44259019 (Simulation time: 0 hr 12 min 26 sec) 

Heartbeat CPU 0 instructions: 110000000 cycles: 55054061 heartbeat IPC: 0.926351 cumulative IPC: 0.926351 (Simulation time: 0 hr 13 min 5 sec) 
Heartbeat CPU 0 instructions: 120000001 cycles: 66761028 heartbeat IPC: 0.854192 cumulative IPC: 0.88881 (Simulation time: 0 hr 14 min 1 sec) 
Heartbeat CPU 0 instructions: 130000000 cycles: 79132787 heartbeat IPC: 0.808292 cumulative IPC: 0.860245 (Simulation time: 0 hr 15 min 19 sec) 
Heartbeat CPU 0 instructions: 140000002 cycles: 90587118 heartbeat IPC: 0.873032 cumulative IPC: 0.863407 (Simulation time: 0 hr 16 min 28 sec) 
Heartbeat CPU 0 instructions: 150000001 cycles: 102192060 heartbeat IPC: 0.861702 cumulative IPC: 0.863065 (Simulation time: 0 hr 17 min 41 sec) 
Heartbeat CPU 0 instructions: 160000000 cycles: 113499279 heartbeat IPC: 0.884391 cumulative IPC: 0.866548 (Simulation time: 0 hr 18 min 55 sec) 
Heartbeat CPU 0 instructions: 170000000 cycles: 128915712 heartbeat IPC: 0.648658 cumulative IPC: 0.826869 (Simulation time: 0 hr 20 min 16 sec) 
Heartbeat CPU 0 instructions: 180000001 cycles: 145138744 heartbeat IPC: 0.616408 cumulative IPC: 0.793024 (Simulation time: 0 hr 21 min 31 sec) 
Heartbeat CPU 0 instructions: 190000000 cycles: 162376976 heartbeat IPC: 0.580106 cumulative IPC: 0.76195 (Simulation time: 0 hr 22 min 46 sec) 
Heartbeat CPU 0 instructions: 200000003 cycles: 173595776 heartbeat IPC: 0.891361 cumulative IPC: 0.773175 (Simulation time: 0 hr 23 min 57 sec) 
Finished CPU 0 instructions: 100000002 cycles: 129336757 cumulative IPC: 0.773175 (Simulation time: 0 hr 23 min 57 sec) 

ChampSim completed all CPUs

Region of Interest Statistics

CPU 0 cumulative IPC: 0.773175 instructions: 100000002 cycles: 129336757
L1D TOTAL     ACCESS:   31258609  HIT:   31065449  MISS:     193160
L1D LOAD      ACCESS:   17711185  HIT:   17538118  MISS:     173067
L1D RFO       ACCESS:   13547424  HIT:   13527331  MISS:      20093
L1D PREFETCH  ACCESS:          0  HIT:          0  MISS:          0
L1D WRITEBACK ACCESS:          0  HIT:          0  MISS:          0
L1D PREFETCH  REQUESTED:          0  ISSUED:          0  USEFUL:          0  USELESS:          0
L1D AVERAGE MISS LATENCY: 69.7422 cycles
L1I TOTAL     ACCESS:   18898086  HIT:   18724265  MISS:     173821
L1I LOAD      ACCESS:   18898086  HIT:   18724265  MISS:     173821
L1I RFO       ACCESS:          0  HIT:          0  MISS:          0
L1I PREFETCH  ACCESS:          0  HIT:          0  MISS:          0
L1I WRITEBACK ACCESS:          0  HIT:          0  MISS:          0
L1I PREFETCH  REQUESTED:          0  ISSUED:          0  USEFUL:          0  USELESS:          0
L1I AVERAGE MISS LATENCY: 17.6148 cycles
L2C TOTAL     ACCESS:     462191  HIT:     367116  MISS:      95075
L2C LOAD      ACCESS:     346886  HIT:     263904  MISS:      82982
L2C RFO       ACCESS:      20090  HIT:      13121  MISS:       6969
L2C PREFETCH  ACCESS:      41984  HIT:      37132  MISS:       4852
L2C WRITEBACK ACCESS:      53231  HIT:      52959  MISS:        272
L2C PREFETCH  REQUESTED:     128061  ISSUED:     128061  USEFUL:       3611  USELESS:       1346
L2C AVERAGE MISS LATENCY: 120.477 cycles
LLC TOTAL     ACCESS:     192206  HIT:     102798  MISS:      89408
LLC LOAD      ACCESS:      82688  HIT:      30897  MISS:      51791
LLC RFO       ACCESS:       6969  HIT:       2327  MISS:       4642
LLC PREFETCH  ACCESS:      84652  HIT:      52435  MISS:      32217
LLC WRITEBACK ACCESS:      17897  HIT:      17139  MISS:        758
LLC PREFETCH  REQUESTED:          0  ISSUED:          0  USEFUL:      15139  USELESS:      17069
LLC AVERAGE MISS LATENCY: 146.883 cycles
Major fault: 0 Minor fault: 4637

L2C Signature Path Prefetcher final stats

DRAM Statistics
 CHANNEL 0
 RQ ROW_BUFFER_HIT:      20993  ROW_BUFFER_MISS:      67657
 DBUS_CONGESTED:       8010
 WQ ROW_BUFFER_HIT:       3930  ROW_BUFFER_MISS:       9033  FULL:          0

 AVG_CONGESTED_CYCLE: 6

CPU 0 Branch Prediction Accuracy: 95.2818% MPKI: 9.76349 Average ROB Occupancy at Mispredict: 49.5656

Branch types
NOT_BRANCH: 79306395 79.3064%
BRANCH_DIRECT_JUMP: 1595153 1.59515%
BRANCH_INDIRECT: 886650 0.88665%
BRANCH_CONDITIONAL: 16112828 16.1128%
BRANCH_DIRECT_CALL: 911124 0.911124%
BRANCH_INDIRECT_CALL: 138180 0.13818%
BRANCH_RETURN: 1049305 1.0493%
BRANCH_OTHER: 0 0%

