
*** ChampSim Multicore Out-of-Order Simulator ***

Warmup Instructions: 100000000
Simulation Instructions: 100000000
Number of CPUs: 1
LLC sets: 2048
LLC ways: 16
Off-chip DRAM Size: 4096 MB Channels: 1 Width: 64-bit Data Rate: 3200 MT/s

CPU 0 runs /home/sai/ChampSim/traces/410.bwaves-945B.champsimtrace.xz
CPU 0 Bimodal branch predictor
L2C Signature Path Prefetcher
Initialize DRRIP state
Assign rand_sets[0]: 454  LLC: 2048
rand_sets[0]: 454
Assign rand_sets[1]: 1662  LLC: 2048
rand_sets[1]: 1662
Assign rand_sets[2]: 1921  LLC: 2048
rand_sets[2]: 1921
Assign rand_sets[3]: 1131  LLC: 2048
rand_sets[3]: 1131
Assign rand_sets[4]: 331  LLC: 2048
rand_sets[4]: 331
Assign rand_sets[5]: 1531  LLC: 2048
rand_sets[5]: 1531
Assign rand_sets[6]: 482  LLC: 2048
rand_sets[6]: 482
Assign rand_sets[7]: 1275  LLC: 2048
rand_sets[7]: 1275
Assign rand_sets[8]: 1876  LLC: 2048
rand_sets[8]: 1876
Assign rand_sets[9]: 2038  LLC: 2048
rand_sets[9]: 2038
Assign rand_sets[10]: 701  LLC: 2048
rand_sets[10]: 701
Assign rand_sets[11]: 479  LLC: 2048
rand_sets[11]: 479
Assign rand_sets[12]: 892  LLC: 2048
rand_sets[12]: 892
Assign rand_sets[13]: 1820  LLC: 2048
rand_sets[13]: 1820
Assign rand_sets[14]: 1505  LLC: 2048
rand_sets[14]: 1505
Assign rand_sets[15]: 1159  LLC: 2048
rand_sets[15]: 1159
Assign rand_sets[16]: 513  LLC: 2048
rand_sets[16]: 513
Assign rand_sets[17]: 703  LLC: 2048
rand_sets[17]: 703
Assign rand_sets[18]: 561  LLC: 2048
rand_sets[18]: 561
Assign rand_sets[19]: 990  LLC: 2048
rand_sets[19]: 990
Assign rand_sets[20]: 342  LLC: 2048
rand_sets[20]: 342
Assign rand_sets[21]: 882  LLC: 2048
rand_sets[21]: 882
Assign rand_sets[22]: 15  LLC: 2048
rand_sets[22]: 15
Assign rand_sets[23]: 71  LLC: 2048
rand_sets[23]: 71
Assign rand_sets[24]: 1127  LLC: 2048
rand_sets[24]: 1127
Assign rand_sets[25]: 1382  LLC: 2048
rand_sets[25]: 1382
Assign rand_sets[26]: 647  LLC: 2048
rand_sets[26]: 647
Assign rand_sets[27]: 857  LLC: 2048
rand_sets[27]: 857
Assign rand_sets[28]: 1450  LLC: 2048
rand_sets[28]: 1450
Assign rand_sets[29]: 1160  LLC: 2048
rand_sets[29]: 1160
Assign rand_sets[30]: 1852  LLC: 2048
rand_sets[30]: 1852
Assign rand_sets[31]: 1881  LLC: 2048
rand_sets[31]: 1881
Assign rand_sets[32]: 1770  LLC: 2048
rand_sets[32]: 1770
Assign rand_sets[33]: 1622  LLC: 2048
rand_sets[33]: 1622
Assign rand_sets[34]: 275  LLC: 2048
rand_sets[34]: 275
Assign rand_sets[35]: 635  LLC: 2048
rand_sets[35]: 635
Assign rand_sets[36]: 466  LLC: 2048
rand_sets[36]: 466
Assign rand_sets[37]: 1413  LLC: 2048
rand_sets[37]: 1413
Assign rand_sets[38]: 417  LLC: 2048
rand_sets[38]: 417
Assign rand_sets[39]: 472  LLC: 2048
rand_sets[39]: 472
Assign rand_sets[40]: 1340  LLC: 2048
rand_sets[40]: 1340
Assign rand_sets[41]: 852  LLC: 2048
rand_sets[41]: 852
Assign rand_sets[42]: 1365  LLC: 2048
rand_sets[42]: 1365
Assign rand_sets[43]: 47  LLC: 2048
rand_sets[43]: 47
Assign rand_sets[44]: 823  LLC: 2048
rand_sets[44]: 823
Assign rand_sets[45]: 686  LLC: 2048
rand_sets[45]: 686
Assign rand_sets[46]: 1637  LLC: 2048
rand_sets[46]: 1637
Assign rand_sets[47]: 1115  LLC: 2048
rand_sets[47]: 1115
Assign rand_sets[48]: 986  LLC: 2048
rand_sets[48]: 986
Assign rand_sets[49]: 258  LLC: 2048
rand_sets[49]: 258
Assign rand_sets[50]: 633  LLC: 2048
rand_sets[50]: 633
Assign rand_sets[51]: 920  LLC: 2048
rand_sets[51]: 920
Assign rand_sets[52]: 204  LLC: 2048
rand_sets[52]: 204
Assign rand_sets[53]: 227  LLC: 2048
rand_sets[53]: 227
Assign rand_sets[54]: 1818  LLC: 2048
rand_sets[54]: 1818
Assign rand_sets[55]: 886  LLC: 2048
rand_sets[55]: 886
Assign rand_sets[56]: 1422  LLC: 2048
rand_sets[56]: 1422
Assign rand_sets[57]: 607  LLC: 2048
rand_sets[57]: 607
Assign rand_sets[58]: 217  LLC: 2048
rand_sets[58]: 217
Assign rand_sets[59]: 1945  LLC: 2048
rand_sets[59]: 1945
Assign rand_sets[60]: 143  LLC: 2048
rand_sets[60]: 143
Assign rand_sets[61]: 1311  LLC: 2048
rand_sets[61]: 1311
Assign rand_sets[62]: 319  LLC: 2048
rand_sets[62]: 319
Assign rand_sets[63]: 1846  LLC: 2048
rand_sets[63]: 1846
Heartbeat CPU 0 instructions: 10000001 cycles: 3203993 heartbeat IPC: 3.12111 cumulative IPC: 3.12111 (Simulation time: 0 hr 0 min 39 sec) 
Heartbeat CPU 0 instructions: 20000000 cycles: 6404832 heartbeat IPC: 3.12418 cumulative IPC: 3.12264 (Simulation time: 0 hr 1 min 20 sec) 
Heartbeat CPU 0 instructions: 30000000 cycles: 9603760 heartbeat IPC: 3.12605 cumulative IPC: 3.12378 (Simulation time: 0 hr 2 min 4 sec) 
Heartbeat CPU 0 instructions: 40000002 cycles: 12800348 heartbeat IPC: 3.12834 cumulative IPC: 3.12492 (Simulation time: 0 hr 3 min 0 sec) 
Heartbeat CPU 0 instructions: 50000003 cycles: 15998765 heartbeat IPC: 3.12655 cumulative IPC: 3.12524 (Simulation time: 0 hr 3 min 51 sec) 
Heartbeat CPU 0 instructions: 60000002 cycles: 19195652 heartbeat IPC: 3.12804 cumulative IPC: 3.12571 (Simulation time: 0 hr 4 min 47 sec) 
Heartbeat CPU 0 instructions: 70000000 cycles: 22394833 heartbeat IPC: 3.1258 cumulative IPC: 3.12572 (Simulation time: 0 hr 5 min 29 sec) 
Heartbeat CPU 0 instructions: 80000000 cycles: 25596319 heartbeat IPC: 3.12355 cumulative IPC: 3.12545 (Simulation time: 0 hr 6 min 20 sec) 
Heartbeat CPU 0 instructions: 90000000 cycles: 28795794 heartbeat IPC: 3.12551 cumulative IPC: 3.12546 (Simulation time: 0 hr 7 min 7 sec) 
Heartbeat CPU 0 instructions: 100000001 cycles: 31996736 heartbeat IPC: 3.12408 cumulative IPC: 3.12532 (Simulation time: 0 hr 7 min 55 sec) 

Warmup complete CPU 0 instructions: 100000001 cycles: 31996736 (Simulation time: 0 hr 7 min 55 sec) 

Heartbeat CPU 0 instructions: 110000000 cycles: 39192343 heartbeat IPC: 1.38974 cumulative IPC: 1.38974 (Simulation time: 0 hr 8 min 39 sec) 
Heartbeat CPU 0 instructions: 120000001 cycles: 46334279 heartbeat IPC: 1.40018 cumulative IPC: 1.39494 (Simulation time: 0 hr 9 min 19 sec) 
Heartbeat CPU 0 instructions: 130000003 cycles: 53523285 heartbeat IPC: 1.39101 cumulative IPC: 1.39363 (Simulation time: 0 hr 10 min 1 sec) 
Heartbeat CPU 0 instructions: 140000000 cycles: 60753661 heartbeat IPC: 1.38305 cumulative IPC: 1.39097 (Simulation time: 0 hr 10 min 36 sec) 
Heartbeat CPU 0 instructions: 150000003 cycles: 67933965 heartbeat IPC: 1.3927 cumulative IPC: 1.39131 (Simulation time: 0 hr 11 min 16 sec) 
Heartbeat CPU 0 instructions: 160000001 cycles: 75226797 heartbeat IPC: 1.37121 cumulative IPC: 1.38792 (Simulation time: 0 hr 11 min 51 sec) 
Heartbeat CPU 0 instructions: 170000001 cycles: 82504179 heartbeat IPC: 1.37412 cumulative IPC: 1.38593 (Simulation time: 0 hr 12 min 26 sec) 
Heartbeat CPU 0 instructions: 180000002 cycles: 89702395 heartbeat IPC: 1.38923 cumulative IPC: 1.38635 (Simulation time: 0 hr 13 min 1 sec) 
Heartbeat CPU 0 instructions: 190000002 cycles: 96880026 heartbeat IPC: 1.39322 cumulative IPC: 1.38711 (Simulation time: 0 hr 13 min 48 sec) 
Heartbeat CPU 0 instructions: 200000002 cycles: 104096273 heartbeat IPC: 1.38576 cumulative IPC: 1.38697 (Simulation time: 0 hr 14 min 36 sec) 
Finished CPU 0 instructions: 100000001 cycles: 72099537 cumulative IPC: 1.38697 (Simulation time: 0 hr 14 min 36 sec) 

ChampSim completed all CPUs

Region of Interest Statistics

CPU 0 cumulative IPC: 1.38697 instructions: 100000001 cycles: 72099537
L1D TOTAL     ACCESS:   19364422  HIT:   19362114  MISS:       2308
L1D LOAD      ACCESS:   13121056  HIT:   13120829  MISS:        227
L1D RFO       ACCESS:    6243366  HIT:    6241285  MISS:       2081
L1D PREFETCH  ACCESS:          0  HIT:          0  MISS:          0
L1D WRITEBACK ACCESS:          0  HIT:          0  MISS:          0
L1D PREFETCH  REQUESTED:          0  ISSUED:          0  USEFUL:          0  USELESS:          0
L1D AVERAGE MISS LATENCY: 112.863 cycles
L1I TOTAL     ACCESS:   17766775  HIT:   17766775  MISS:          0
L1I LOAD      ACCESS:   17766775  HIT:   17766775  MISS:          0
L1I RFO       ACCESS:          0  HIT:          0  MISS:          0
L1I PREFETCH  ACCESS:          0  HIT:          0  MISS:          0
L1I WRITEBACK ACCESS:          0  HIT:          0  MISS:          0
L1I PREFETCH  REQUESTED:          0  ISSUED:          0  USEFUL:          0  USELESS:          0
L1I AVERAGE MISS LATENCY: -nan cycles
L2C TOTAL     ACCESS:       4595  HIT:       2325  MISS:       2270
L2C LOAD      ACCESS:        227  HIT:        213  MISS:         14
L2C RFO       ACCESS:       2081  HIT:         22  MISS:       2059
L2C PREFETCH  ACCESS:        197  HIT:          0  MISS:        197
L2C WRITEBACK ACCESS:       2090  HIT:       2090  MISS:          0
L2C PREFETCH  REQUESTED:       2731  ISSUED:       2471  USEFUL:        193  USELESS:          0
L2C AVERAGE MISS LATENCY: 101.673 cycles
LLC TOTAL     ACCESS:       4522  HIT:       2243  MISS:       2279
LLC LOAD      ACCESS:         14  HIT:          5  MISS:          9
LLC RFO       ACCESS:       2059  HIT:          0  MISS:       2059
LLC PREFETCH  ACCESS:       2449  HIT:       2238  MISS:        211
LLC WRITEBACK ACCESS:          0  HIT:          0  MISS:          0
LLC PREFETCH  REQUESTED:          0  ISSUED:          0  USEFUL:          5  USELESS:          0
LLC AVERAGE MISS LATENCY: 80.6117 cycles
Major fault: 0 Minor fault: 75

L2C Signature Path Prefetcher final stats

DRAM Statistics
 CHANNEL 0
 RQ ROW_BUFFER_HIT:       2095  ROW_BUFFER_MISS:        184
 DBUS_CONGESTED:         80
 WQ ROW_BUFFER_HIT:          0  ROW_BUFFER_MISS:          0  FULL:          0

 AVG_CONGESTED_CYCLE: 6

CPU 0 Branch Prediction Accuracy: 93.5277% MPKI: 7.10121 Average ROB Occupancy at Mispredict: 59.6159

Branch types
NOT_BRANCH: 89028091 89.0281%
BRANCH_DIRECT_JUMP: 203031 0.203031%
BRANCH_INDIRECT: 0 0%
BRANCH_CONDITIONAL: 10720632 10.7206%
BRANCH_DIRECT_CALL: 23982 0.023982%
BRANCH_INDIRECT_CALL: 0 0%
BRANCH_RETURN: 23981 0.023981%
BRANCH_OTHER: 0 0%

