
*** ChampSim Multicore Out-of-Order Simulator ***

Warmup Instructions: 100000000
Simulation Instructions: 100000000
Number of CPUs: 1
LLC sets: 2048
LLC ways: 16
Off-chip DRAM Size: 4096 MB Channels: 1 Width: 64-bit Data Rate: 3200 MT/s

CPU 0 runs /home/sai/ChampSim/traces/603.bwaves_s-1080B.champsimtrace.xz
CPU 0 Bimodal branch predictor
L2C Signature Path Prefetcher
Initialize DRRIP state
Assign rand_sets[0]: 454  LLC: 2048
rand_sets[0]: 454
Assign rand_sets[1]: 1662  LLC: 2048
rand_sets[1]: 1662
Assign rand_sets[2]: 1921  LLC: 2048
rand_sets[2]: 1921
Assign rand_sets[3]: 1131  LLC: 2048
rand_sets[3]: 1131
Assign rand_sets[4]: 331  LLC: 2048
rand_sets[4]: 331
Assign rand_sets[5]: 1531  LLC: 2048
rand_sets[5]: 1531
Assign rand_sets[6]: 482  LLC: 2048
rand_sets[6]: 482
Assign rand_sets[7]: 1275  LLC: 2048
rand_sets[7]: 1275
Assign rand_sets[8]: 1876  LLC: 2048
rand_sets[8]: 1876
Assign rand_sets[9]: 2038  LLC: 2048
rand_sets[9]: 2038
Assign rand_sets[10]: 701  LLC: 2048
rand_sets[10]: 701
Assign rand_sets[11]: 479  LLC: 2048
rand_sets[11]: 479
Assign rand_sets[12]: 892  LLC: 2048
rand_sets[12]: 892
Assign rand_sets[13]: 1820  LLC: 2048
rand_sets[13]: 1820
Assign rand_sets[14]: 1505  LLC: 2048
rand_sets[14]: 1505
Assign rand_sets[15]: 1159  LLC: 2048
rand_sets[15]: 1159
Assign rand_sets[16]: 513  LLC: 2048
rand_sets[16]: 513
Assign rand_sets[17]: 703  LLC: 2048
rand_sets[17]: 703
Assign rand_sets[18]: 561  LLC: 2048
rand_sets[18]: 561
Assign rand_sets[19]: 990  LLC: 2048
rand_sets[19]: 990
Assign rand_sets[20]: 342  LLC: 2048
rand_sets[20]: 342
Assign rand_sets[21]: 882  LLC: 2048
rand_sets[21]: 882
Assign rand_sets[22]: 15  LLC: 2048
rand_sets[22]: 15
Assign rand_sets[23]: 71  LLC: 2048
rand_sets[23]: 71
Assign rand_sets[24]: 1127  LLC: 2048
rand_sets[24]: 1127
Assign rand_sets[25]: 1382  LLC: 2048
rand_sets[25]: 1382
Assign rand_sets[26]: 647  LLC: 2048
rand_sets[26]: 647
Assign rand_sets[27]: 857  LLC: 2048
rand_sets[27]: 857
Assign rand_sets[28]: 1450  LLC: 2048
rand_sets[28]: 1450
Assign rand_sets[29]: 1160  LLC: 2048
rand_sets[29]: 1160
Assign rand_sets[30]: 1852  LLC: 2048
rand_sets[30]: 1852
Assign rand_sets[31]: 1881  LLC: 2048
rand_sets[31]: 1881
Assign rand_sets[32]: 1770  LLC: 2048
rand_sets[32]: 1770
Assign rand_sets[33]: 1622  LLC: 2048
rand_sets[33]: 1622
Assign rand_sets[34]: 275  LLC: 2048
rand_sets[34]: 275
Assign rand_sets[35]: 635  LLC: 2048
rand_sets[35]: 635
Assign rand_sets[36]: 466  LLC: 2048
rand_sets[36]: 466
Assign rand_sets[37]: 1413  LLC: 2048
rand_sets[37]: 1413
Assign rand_sets[38]: 417  LLC: 2048
rand_sets[38]: 417
Assign rand_sets[39]: 472  LLC: 2048
rand_sets[39]: 472
Assign rand_sets[40]: 1340  LLC: 2048
rand_sets[40]: 1340
Assign rand_sets[41]: 852  LLC: 2048
rand_sets[41]: 852
Assign rand_sets[42]: 1365  LLC: 2048
rand_sets[42]: 1365
Assign rand_sets[43]: 47  LLC: 2048
rand_sets[43]: 47
Assign rand_sets[44]: 823  LLC: 2048
rand_sets[44]: 823
Assign rand_sets[45]: 686  LLC: 2048
rand_sets[45]: 686
Assign rand_sets[46]: 1637  LLC: 2048
rand_sets[46]: 1637
Assign rand_sets[47]: 1115  LLC: 2048
rand_sets[47]: 1115
Assign rand_sets[48]: 986  LLC: 2048
rand_sets[48]: 986
Assign rand_sets[49]: 258  LLC: 2048
rand_sets[49]: 258
Assign rand_sets[50]: 633  LLC: 2048
rand_sets[50]: 633
Assign rand_sets[51]: 920  LLC: 2048
rand_sets[51]: 920
Assign rand_sets[52]: 204  LLC: 2048
rand_sets[52]: 204
Assign rand_sets[53]: 227  LLC: 2048
rand_sets[53]: 227
Assign rand_sets[54]: 1818  LLC: 2048
rand_sets[54]: 1818
Assign rand_sets[55]: 886  LLC: 2048
rand_sets[55]: 886
Assign rand_sets[56]: 1422  LLC: 2048
rand_sets[56]: 1422
Assign rand_sets[57]: 607  LLC: 2048
rand_sets[57]: 607
Assign rand_sets[58]: 217  LLC: 2048
rand_sets[58]: 217
Assign rand_sets[59]: 1945  LLC: 2048
rand_sets[59]: 1945
Assign rand_sets[60]: 143  LLC: 2048
rand_sets[60]: 143
Assign rand_sets[61]: 1311  LLC: 2048
rand_sets[61]: 1311
Assign rand_sets[62]: 319  LLC: 2048
rand_sets[62]: 319
Assign rand_sets[63]: 1846  LLC: 2048
rand_sets[63]: 1846
Heartbeat CPU 0 instructions: 10000001 cycles: 3445865 heartbeat IPC: 2.90203 cumulative IPC: 2.90203 (Simulation time: 0 hr 0 min 52 sec) 
Heartbeat CPU 0 instructions: 20000000 cycles: 6899429 heartbeat IPC: 2.89556 cumulative IPC: 2.89879 (Simulation time: 0 hr 1 min 38 sec) 
Heartbeat CPU 0 instructions: 30000003 cycles: 10284140 heartbeat IPC: 2.95446 cumulative IPC: 2.91711 (Simulation time: 0 hr 2 min 33 sec) 
Heartbeat CPU 0 instructions: 40000000 cycles: 13666689 heartbeat IPC: 2.95635 cumulative IPC: 2.92682 (Simulation time: 0 hr 3 min 27 sec) 
Heartbeat CPU 0 instructions: 50000002 cycles: 17052860 heartbeat IPC: 2.95319 cumulative IPC: 2.93206 (Simulation time: 0 hr 4 min 8 sec) 
Heartbeat CPU 0 instructions: 60000001 cycles: 20467084 heartbeat IPC: 2.92892 cumulative IPC: 2.93154 (Simulation time: 0 hr 4 min 53 sec) 
Heartbeat CPU 0 instructions: 70000000 cycles: 23879588 heartbeat IPC: 2.9304 cumulative IPC: 2.93137 (Simulation time: 0 hr 5 min 36 sec) 
Heartbeat CPU 0 instructions: 80000000 cycles: 27290865 heartbeat IPC: 2.93145 cumulative IPC: 2.93138 (Simulation time: 0 hr 6 min 17 sec) 
Heartbeat CPU 0 instructions: 90000001 cycles: 30702914 heartbeat IPC: 2.93079 cumulative IPC: 2.93132 (Simulation time: 0 hr 6 min 52 sec) 
Heartbeat CPU 0 instructions: 100000003 cycles: 34105534 heartbeat IPC: 2.93891 cumulative IPC: 2.93208 (Simulation time: 0 hr 7 min 38 sec) 

Warmup complete CPU 0 instructions: 100000003 cycles: 34105534 (Simulation time: 0 hr 7 min 38 sec) 

Heartbeat CPU 0 instructions: 110000000 cycles: 42432078 heartbeat IPC: 1.20098 cumulative IPC: 1.20098 (Simulation time: 0 hr 8 min 11 sec) 
Heartbeat CPU 0 instructions: 120000000 cycles: 50774666 heartbeat IPC: 1.19867 cumulative IPC: 1.19982 (Simulation time: 0 hr 8 min 39 sec) 
Heartbeat CPU 0 instructions: 130000001 cycles: 59118684 heartbeat IPC: 1.19846 cumulative IPC: 1.19937 (Simulation time: 0 hr 9 min 8 sec) 
Heartbeat CPU 0 instructions: 140000002 cycles: 67461293 heartbeat IPC: 1.19867 cumulative IPC: 1.19919 (Simulation time: 0 hr 9 min 42 sec) 
Heartbeat CPU 0 instructions: 150000003 cycles: 75789787 heartbeat IPC: 1.2007 cumulative IPC: 1.19949 (Simulation time: 0 hr 10 min 19 sec) 
Heartbeat CPU 0 instructions: 160000002 cycles: 84104457 heartbeat IPC: 1.20269 cumulative IPC: 1.20003 (Simulation time: 0 hr 10 min 47 sec) 
Heartbeat CPU 0 instructions: 170000000 cycles: 92419101 heartbeat IPC: 1.2027 cumulative IPC: 1.20041 (Simulation time: 0 hr 11 min 13 sec) 
Heartbeat CPU 0 instructions: 180000003 cycles: 100732263 heartbeat IPC: 1.20291 cumulative IPC: 1.20072 (Simulation time: 0 hr 11 min 49 sec) 
Heartbeat CPU 0 instructions: 190000003 cycles: 109041654 heartbeat IPC: 1.20346 cumulative IPC: 1.20102 (Simulation time: 0 hr 12 min 23 sec) 
Heartbeat CPU 0 instructions: 200000001 cycles: 117346049 heartbeat IPC: 1.20418 cumulative IPC: 1.20134 (Simulation time: 0 hr 13 min 2 sec) 
Finished CPU 0 instructions: 100000001 cycles: 83240521 cumulative IPC: 1.20134 (Simulation time: 0 hr 13 min 2 sec) 

ChampSim completed all CPUs

Region of Interest Statistics

CPU 0 cumulative IPC: 1.20134 instructions: 100000001 cycles: 83240521
L1D TOTAL     ACCESS:   19619183  HIT:   19611821  MISS:       7362
L1D LOAD      ACCESS:   16245453  HIT:   16244686  MISS:        767
L1D RFO       ACCESS:    3373730  HIT:    3367135  MISS:       6595
L1D PREFETCH  ACCESS:          0  HIT:          0  MISS:          0
L1D WRITEBACK ACCESS:          0  HIT:          0  MISS:          0
L1D PREFETCH  REQUESTED:          0  ISSUED:          0  USEFUL:          0  USELESS:          0
L1D AVERAGE MISS LATENCY: 214.363 cycles
L1I TOTAL     ACCESS:   21550909  HIT:   21550909  MISS:          0
L1I LOAD      ACCESS:   21550909  HIT:   21550909  MISS:          0
L1I RFO       ACCESS:          0  HIT:          0  MISS:          0
L1I PREFETCH  ACCESS:          0  HIT:          0  MISS:          0
L1I WRITEBACK ACCESS:          0  HIT:          0  MISS:          0
L1I PREFETCH  REQUESTED:          0  ISSUED:          0  USEFUL:          0  USELESS:          0
L1I AVERAGE MISS LATENCY: -nan cycles
L2C TOTAL     ACCESS:      14581  HIT:       7349  MISS:       7232
L2C LOAD      ACCESS:        767  HIT:        734  MISS:         33
L2C RFO       ACCESS:       6595  HIT:         19  MISS:       6576
L2C PREFETCH  ACCESS:        622  HIT:          0  MISS:        622
L2C WRITEBACK ACCESS:       6597  HIT:       6596  MISS:          1
L2C PREFETCH  REQUESTED:       4920  ISSUED:       4375  USEFUL:        628  USELESS:          8
L2C AVERAGE MISS LATENCY: 212.549 cycles
LLC TOTAL     ACCESS:      17458  HIT:      10130  MISS:       7328
LLC LOAD      ACCESS:         33  HIT:          3  MISS:         30
LLC RFO       ACCESS:       6576  HIT:          0  MISS:       6576
LLC PREFETCH  ACCESS:       4372  HIT:       3745  MISS:        627
LLC WRITEBACK ACCESS:       6477  HIT:       6382  MISS:         95
LLC PREFETCH  REQUESTED:          0  ISSUED:          0  USEFUL:          0  USELESS:        650
LLC AVERAGE MISS LATENCY: 192.627 cycles
Major fault: 0 Minor fault: 1317

L2C Signature Path Prefetcher final stats

DRAM Statistics
 CHANNEL 0
 RQ ROW_BUFFER_HIT:        622  ROW_BUFFER_MISS:       6611
 DBUS_CONGESTED:       5051
 WQ ROW_BUFFER_HIT:       3577  ROW_BUFFER_MISS:       2972  FULL:          0

 AVG_CONGESTED_CYCLE: 6

CPU 0 Branch Prediction Accuracy: 87.5647% MPKI: 18.0781 Average ROB Occupancy at Mispredict: 19.9964

Branch types
NOT_BRANCH: 85462310 85.4623%
BRANCH_DIRECT_JUMP: 1074199 1.0742%
BRANCH_INDIRECT: 83005 0.083005%
BRANCH_CONDITIONAL: 13134765 13.1348%
BRANCH_DIRECT_CALL: 122900 0.1229%
BRANCH_INDIRECT_CALL: 0 0%
BRANCH_RETURN: 122901 0.122901%
BRANCH_OTHER: 0 0%

