
*** ChampSim Multicore Out-of-Order Simulator ***

Warmup Instructions: 100000000
Simulation Instructions: 100000000
Number of CPUs: 1
LLC sets: 2048
LLC ways: 16
Off-chip DRAM Size: 4096 MB Channels: 1 Width: 64-bit Data Rate: 3200 MT/s

CPU 0 runs /home/sai/ChampSim/traces/625.x264_s-20B.champsimtrace.xz
CPU 0 Bimodal branch predictor
L2C Signature Path Prefetcher
Initialize DRRIP state
Assign rand_sets[0]: 454  LLC: 2048
rand_sets[0]: 454
Assign rand_sets[1]: 1662  LLC: 2048
rand_sets[1]: 1662
Assign rand_sets[2]: 1921  LLC: 2048
rand_sets[2]: 1921
Assign rand_sets[3]: 1131  LLC: 2048
rand_sets[3]: 1131
Assign rand_sets[4]: 331  LLC: 2048
rand_sets[4]: 331
Assign rand_sets[5]: 1531  LLC: 2048
rand_sets[5]: 1531
Assign rand_sets[6]: 482  LLC: 2048
rand_sets[6]: 482
Assign rand_sets[7]: 1275  LLC: 2048
rand_sets[7]: 1275
Assign rand_sets[8]: 1876  LLC: 2048
rand_sets[8]: 1876
Assign rand_sets[9]: 2038  LLC: 2048
rand_sets[9]: 2038
Assign rand_sets[10]: 701  LLC: 2048
rand_sets[10]: 701
Assign rand_sets[11]: 479  LLC: 2048
rand_sets[11]: 479
Assign rand_sets[12]: 892  LLC: 2048
rand_sets[12]: 892
Assign rand_sets[13]: 1820  LLC: 2048
rand_sets[13]: 1820
Assign rand_sets[14]: 1505  LLC: 2048
rand_sets[14]: 1505
Assign rand_sets[15]: 1159  LLC: 2048
rand_sets[15]: 1159
Assign rand_sets[16]: 513  LLC: 2048
rand_sets[16]: 513
Assign rand_sets[17]: 703  LLC: 2048
rand_sets[17]: 703
Assign rand_sets[18]: 561  LLC: 2048
rand_sets[18]: 561
Assign rand_sets[19]: 990  LLC: 2048
rand_sets[19]: 990
Assign rand_sets[20]: 342  LLC: 2048
rand_sets[20]: 342
Assign rand_sets[21]: 882  LLC: 2048
rand_sets[21]: 882
Assign rand_sets[22]: 15  LLC: 2048
rand_sets[22]: 15
Assign rand_sets[23]: 71  LLC: 2048
rand_sets[23]: 71
Assign rand_sets[24]: 1127  LLC: 2048
rand_sets[24]: 1127
Assign rand_sets[25]: 1382  LLC: 2048
rand_sets[25]: 1382
Assign rand_sets[26]: 647  LLC: 2048
rand_sets[26]: 647
Assign rand_sets[27]: 857  LLC: 2048
rand_sets[27]: 857
Assign rand_sets[28]: 1450  LLC: 2048
rand_sets[28]: 1450
Assign rand_sets[29]: 1160  LLC: 2048
rand_sets[29]: 1160
Assign rand_sets[30]: 1852  LLC: 2048
rand_sets[30]: 1852
Assign rand_sets[31]: 1881  LLC: 2048
rand_sets[31]: 1881
Assign rand_sets[32]: 1770  LLC: 2048
rand_sets[32]: 1770
Assign rand_sets[33]: 1622  LLC: 2048
rand_sets[33]: 1622
Assign rand_sets[34]: 275  LLC: 2048
rand_sets[34]: 275
Assign rand_sets[35]: 635  LLC: 2048
rand_sets[35]: 635
Assign rand_sets[36]: 466  LLC: 2048
rand_sets[36]: 466
Assign rand_sets[37]: 1413  LLC: 2048
rand_sets[37]: 1413
Assign rand_sets[38]: 417  LLC: 2048
rand_sets[38]: 417
Assign rand_sets[39]: 472  LLC: 2048
rand_sets[39]: 472
Assign rand_sets[40]: 1340  LLC: 2048
rand_sets[40]: 1340
Assign rand_sets[41]: 852  LLC: 2048
rand_sets[41]: 852
Assign rand_sets[42]: 1365  LLC: 2048
rand_sets[42]: 1365
Assign rand_sets[43]: 47  LLC: 2048
rand_sets[43]: 47
Assign rand_sets[44]: 823  LLC: 2048
rand_sets[44]: 823
Assign rand_sets[45]: 686  LLC: 2048
rand_sets[45]: 686
Assign rand_sets[46]: 1637  LLC: 2048
rand_sets[46]: 1637
Assign rand_sets[47]: 1115  LLC: 2048
rand_sets[47]: 1115
Assign rand_sets[48]: 986  LLC: 2048
rand_sets[48]: 986
Assign rand_sets[49]: 258  LLC: 2048
rand_sets[49]: 258
Assign rand_sets[50]: 633  LLC: 2048
rand_sets[50]: 633
Assign rand_sets[51]: 920  LLC: 2048
rand_sets[51]: 920
Assign rand_sets[52]: 204  LLC: 2048
rand_sets[52]: 204
Assign rand_sets[53]: 227  LLC: 2048
rand_sets[53]: 227
Assign rand_sets[54]: 1818  LLC: 2048
rand_sets[54]: 1818
Assign rand_sets[55]: 886  LLC: 2048
rand_sets[55]: 886
Assign rand_sets[56]: 1422  LLC: 2048
rand_sets[56]: 1422
Assign rand_sets[57]: 607  LLC: 2048
rand_sets[57]: 607
Assign rand_sets[58]: 217  LLC: 2048
rand_sets[58]: 217
Assign rand_sets[59]: 1945  LLC: 2048
rand_sets[59]: 1945
Assign rand_sets[60]: 143  LLC: 2048
rand_sets[60]: 143
Assign rand_sets[61]: 1311  LLC: 2048
rand_sets[61]: 1311
Assign rand_sets[62]: 319  LLC: 2048
rand_sets[62]: 319
Assign rand_sets[63]: 1846  LLC: 2048
rand_sets[63]: 1846
Heartbeat CPU 0 instructions: 10000002 cycles: 3226592 heartbeat IPC: 3.09925 cumulative IPC: 3.09925 (Simulation time: 0 hr 0 min 58 sec) 
Heartbeat CPU 0 instructions: 20000002 cycles: 6562785 heartbeat IPC: 2.99743 cumulative IPC: 3.04749 (Simulation time: 0 hr 1 min 55 sec) 
Heartbeat CPU 0 instructions: 30000001 cycles: 9903669 heartbeat IPC: 2.99322 cumulative IPC: 3.02918 (Simulation time: 0 hr 2 min 56 sec) 
Heartbeat CPU 0 instructions: 40000001 cycles: 13244580 heartbeat IPC: 2.9932 cumulative IPC: 3.0201 (Simulation time: 0 hr 3 min 39 sec) 
Heartbeat CPU 0 instructions: 50000001 cycles: 16582918 heartbeat IPC: 2.9955 cumulative IPC: 3.01515 (Simulation time: 0 hr 4 min 22 sec) 
Heartbeat CPU 0 instructions: 60000000 cycles: 19923960 heartbeat IPC: 2.99308 cumulative IPC: 3.01145 (Simulation time: 0 hr 5 min 2 sec) 
Heartbeat CPU 0 instructions: 70000003 cycles: 23266415 heartbeat IPC: 2.99181 cumulative IPC: 3.00863 (Simulation time: 0 hr 5 min 41 sec) 
Heartbeat CPU 0 instructions: 80000000 cycles: 26610136 heartbeat IPC: 2.99068 cumulative IPC: 3.00637 (Simulation time: 0 hr 6 min 22 sec) 
Heartbeat CPU 0 instructions: 90000001 cycles: 30169168 heartbeat IPC: 2.80975 cumulative IPC: 2.98318 (Simulation time: 0 hr 7 min 0 sec) 
Heartbeat CPU 0 instructions: 100000002 cycles: 33782310 heartbeat IPC: 2.76767 cumulative IPC: 2.96013 (Simulation time: 0 hr 7 min 46 sec) 

Warmup complete CPU 0 instructions: 100000002 cycles: 33782310 (Simulation time: 0 hr 7 min 46 sec) 

Heartbeat CPU 0 instructions: 110000000 cycles: 40301407 heartbeat IPC: 1.53395 cumulative IPC: 1.53395 (Simulation time: 0 hr 8 min 16 sec) 
Heartbeat CPU 0 instructions: 120000002 cycles: 46733541 heartbeat IPC: 1.55469 cumulative IPC: 1.54425 (Simulation time: 0 hr 8 min 48 sec) 
Heartbeat CPU 0 instructions: 130000000 cycles: 53142179 heartbeat IPC: 1.56039 cumulative IPC: 1.5496 (Simulation time: 0 hr 9 min 20 sec) 
Heartbeat CPU 0 instructions: 140000001 cycles: 59547723 heartbeat IPC: 1.56115 cumulative IPC: 1.55247 (Simulation time: 0 hr 9 min 54 sec) 
Heartbeat CPU 0 instructions: 150000003 cycles: 65937627 heartbeat IPC: 1.56497 cumulative IPC: 1.55495 (Simulation time: 0 hr 10 min 30 sec) 
Heartbeat CPU 0 instructions: 160000000 cycles: 72336641 heartbeat IPC: 1.56274 cumulative IPC: 1.55625 (Simulation time: 0 hr 11 min 2 sec) 
Heartbeat CPU 0 instructions: 170000000 cycles: 78735000 heartbeat IPC: 1.5629 cumulative IPC: 1.55719 (Simulation time: 0 hr 11 min 27 sec) 
Heartbeat CPU 0 instructions: 180000000 cycles: 85143164 heartbeat IPC: 1.56051 cumulative IPC: 1.55761 (Simulation time: 0 hr 11 min 56 sec) 
Heartbeat CPU 0 instructions: 190000000 cycles: 91552123 heartbeat IPC: 1.56032 cumulative IPC: 1.55791 (Simulation time: 0 hr 12 min 36 sec) 
Heartbeat CPU 0 instructions: 200000000 cycles: 97972663 heartbeat IPC: 1.5575 cumulative IPC: 1.55787 (Simulation time: 0 hr 13 min 10 sec) 
Finished CPU 0 instructions: 100000000 cycles: 64190355 cumulative IPC: 1.55787 (Simulation time: 0 hr 13 min 10 sec) 

ChampSim completed all CPUs

Region of Interest Statistics

CPU 0 cumulative IPC: 1.55787 instructions: 100000000 cycles: 64190355
L1D TOTAL     ACCESS:   15452975  HIT:   15398618  MISS:      54357
L1D LOAD      ACCESS:    8365740  HIT:    8319989  MISS:      45751
L1D RFO       ACCESS:    7087235  HIT:    7078629  MISS:       8606
L1D PREFETCH  ACCESS:          0  HIT:          0  MISS:          0
L1D WRITEBACK ACCESS:          0  HIT:          0  MISS:          0
L1D PREFETCH  REQUESTED:          0  ISSUED:          0  USEFUL:          0  USELESS:          0
L1D AVERAGE MISS LATENCY: 107.633 cycles
L1I TOTAL     ACCESS:   16023975  HIT:   16023569  MISS:        406
L1I LOAD      ACCESS:   16023975  HIT:   16023569  MISS:        406
L1I RFO       ACCESS:          0  HIT:          0  MISS:          0
L1I PREFETCH  ACCESS:          0  HIT:          0  MISS:          0
L1I WRITEBACK ACCESS:          0  HIT:          0  MISS:          0
L1I PREFETCH  REQUESTED:          0  ISSUED:          0  USEFUL:          0  USELESS:          0
L1I AVERAGE MISS LATENCY: 112.305 cycles
L2C TOTAL     ACCESS:      92423  HIT:      37189  MISS:      55234
L2C LOAD      ACCESS:      46157  HIT:      27841  MISS:      18316
L2C RFO       ACCESS:       8606  HIT:         29  MISS:       8577
L2C PREFETCH  ACCESS:      28707  HIT:        387  MISS:      28320
L2C WRITEBACK ACCESS:       8953  HIT:       8932  MISS:         21
L2C PREFETCH  REQUESTED:     292856  ISSUED:     269415  USEFUL:      27341  USELESS:        883
L2C AVERAGE MISS LATENCY: 113.505 cycles
LLC TOTAL     ACCESS:     265717  HIT:     226534  MISS:      39183
LLC LOAD      ACCESS:      15424  HIT:       8593  MISS:       6831
LLC RFO       ACCESS:       8568  HIT:         55  MISS:       8513
LLC PREFETCH  ACCESS:     229141  HIT:     206257  MISS:      22884
LLC WRITEBACK ACCESS:      12584  HIT:      11629  MISS:        955
LLC PREFETCH  REQUESTED:          0  ISSUED:          0  USEFUL:       6261  USELESS:      12960
LLC AVERAGE MISS LATENCY: 200.839 cycles
Major fault: 0 Minor fault: 4558

L2C Signature Path Prefetcher final stats

DRAM Statistics
 CHANNEL 0
 RQ ROW_BUFFER_HIT:      15687  ROW_BUFFER_MISS:      22524
 DBUS_CONGESTED:      24255
 WQ ROW_BUFFER_HIT:       2529  ROW_BUFFER_MISS:      18359  FULL:          0

 AVG_CONGESTED_CYCLE: 6

CPU 0 Branch Prediction Accuracy: 89.1606% MPKI: 3.46502 Average ROB Occupancy at Mispredict: 59.3856

Branch types
NOT_BRANCH: 96802969 96.803%
BRANCH_DIRECT_JUMP: 47694 0.047694%
BRANCH_INDIRECT: 3716 0.003716%
BRANCH_CONDITIONAL: 2523990 2.52399%
BRANCH_DIRECT_CALL: 152189 0.152189%
BRANCH_INDIRECT_CALL: 158457 0.158457%
BRANCH_RETURN: 310639 0.310639%
BRANCH_OTHER: 0 0%

