
*** ChampSim Multicore Out-of-Order Simulator ***

Warmup Instructions: 100000000
Simulation Instructions: 100000000
Number of CPUs: 1
LLC sets: 2048
LLC ways: 16
Off-chip DRAM Size: 4096 MB Channels: 1 Width: 64-bit Data Rate: 3200 MT/s

CPU 0 runs /home/sai/ChampSim/traces/638.imagick_s-824B.champsimtrace.xz
CPU 0 Bimodal branch predictor
L2C Signature Path Prefetcher
Initialize DRRIP state
Assign rand_sets[0]: 454  LLC: 2048
rand_sets[0]: 454
Assign rand_sets[1]: 1662  LLC: 2048
rand_sets[1]: 1662
Assign rand_sets[2]: 1921  LLC: 2048
rand_sets[2]: 1921
Assign rand_sets[3]: 1131  LLC: 2048
rand_sets[3]: 1131
Assign rand_sets[4]: 331  LLC: 2048
rand_sets[4]: 331
Assign rand_sets[5]: 1531  LLC: 2048
rand_sets[5]: 1531
Assign rand_sets[6]: 482  LLC: 2048
rand_sets[6]: 482
Assign rand_sets[7]: 1275  LLC: 2048
rand_sets[7]: 1275
Assign rand_sets[8]: 1876  LLC: 2048
rand_sets[8]: 1876
Assign rand_sets[9]: 2038  LLC: 2048
rand_sets[9]: 2038
Assign rand_sets[10]: 701  LLC: 2048
rand_sets[10]: 701
Assign rand_sets[11]: 479  LLC: 2048
rand_sets[11]: 479
Assign rand_sets[12]: 892  LLC: 2048
rand_sets[12]: 892
Assign rand_sets[13]: 1820  LLC: 2048
rand_sets[13]: 1820
Assign rand_sets[14]: 1505  LLC: 2048
rand_sets[14]: 1505
Assign rand_sets[15]: 1159  LLC: 2048
rand_sets[15]: 1159
Assign rand_sets[16]: 513  LLC: 2048
rand_sets[16]: 513
Assign rand_sets[17]: 703  LLC: 2048
rand_sets[17]: 703
Assign rand_sets[18]: 561  LLC: 2048
rand_sets[18]: 561
Assign rand_sets[19]: 990  LLC: 2048
rand_sets[19]: 990
Assign rand_sets[20]: 342  LLC: 2048
rand_sets[20]: 342
Assign rand_sets[21]: 882  LLC: 2048
rand_sets[21]: 882
Assign rand_sets[22]: 15  LLC: 2048
rand_sets[22]: 15
Assign rand_sets[23]: 71  LLC: 2048
rand_sets[23]: 71
Assign rand_sets[24]: 1127  LLC: 2048
rand_sets[24]: 1127
Assign rand_sets[25]: 1382  LLC: 2048
rand_sets[25]: 1382
Assign rand_sets[26]: 647  LLC: 2048
rand_sets[26]: 647
Assign rand_sets[27]: 857  LLC: 2048
rand_sets[27]: 857
Assign rand_sets[28]: 1450  LLC: 2048
rand_sets[28]: 1450
Assign rand_sets[29]: 1160  LLC: 2048
rand_sets[29]: 1160
Assign rand_sets[30]: 1852  LLC: 2048
rand_sets[30]: 1852
Assign rand_sets[31]: 1881  LLC: 2048
rand_sets[31]: 1881
Assign rand_sets[32]: 1770  LLC: 2048
rand_sets[32]: 1770
Assign rand_sets[33]: 1622  LLC: 2048
rand_sets[33]: 1622
Assign rand_sets[34]: 275  LLC: 2048
rand_sets[34]: 275
Assign rand_sets[35]: 635  LLC: 2048
rand_sets[35]: 635
Assign rand_sets[36]: 466  LLC: 2048
rand_sets[36]: 466
Assign rand_sets[37]: 1413  LLC: 2048
rand_sets[37]: 1413
Assign rand_sets[38]: 417  LLC: 2048
rand_sets[38]: 417
Assign rand_sets[39]: 472  LLC: 2048
rand_sets[39]: 472
Assign rand_sets[40]: 1340  LLC: 2048
rand_sets[40]: 1340
Assign rand_sets[41]: 852  LLC: 2048
rand_sets[41]: 852
Assign rand_sets[42]: 1365  LLC: 2048
rand_sets[42]: 1365
Assign rand_sets[43]: 47  LLC: 2048
rand_sets[43]: 47
Assign rand_sets[44]: 823  LLC: 2048
rand_sets[44]: 823
Assign rand_sets[45]: 686  LLC: 2048
rand_sets[45]: 686
Assign rand_sets[46]: 1637  LLC: 2048
rand_sets[46]: 1637
Assign rand_sets[47]: 1115  LLC: 2048
rand_sets[47]: 1115
Assign rand_sets[48]: 986  LLC: 2048
rand_sets[48]: 986
Assign rand_sets[49]: 258  LLC: 2048
rand_sets[49]: 258
Assign rand_sets[50]: 633  LLC: 2048
rand_sets[50]: 633
Assign rand_sets[51]: 920  LLC: 2048
rand_sets[51]: 920
Assign rand_sets[52]: 204  LLC: 2048
rand_sets[52]: 204
Assign rand_sets[53]: 227  LLC: 2048
rand_sets[53]: 227
Assign rand_sets[54]: 1818  LLC: 2048
rand_sets[54]: 1818
Assign rand_sets[55]: 886  LLC: 2048
rand_sets[55]: 886
Assign rand_sets[56]: 1422  LLC: 2048
rand_sets[56]: 1422
Assign rand_sets[57]: 607  LLC: 2048
rand_sets[57]: 607
Assign rand_sets[58]: 217  LLC: 2048
rand_sets[58]: 217
Assign rand_sets[59]: 1945  LLC: 2048
rand_sets[59]: 1945
Assign rand_sets[60]: 143  LLC: 2048
rand_sets[60]: 143
Assign rand_sets[61]: 1311  LLC: 2048
rand_sets[61]: 1311
Assign rand_sets[62]: 319  LLC: 2048
rand_sets[62]: 319
Assign rand_sets[63]: 1846  LLC: 2048
rand_sets[63]: 1846
Heartbeat CPU 0 instructions: 10000000 cycles: 3763814 heartbeat IPC: 2.65688 cumulative IPC: 2.65688 (Simulation time: 0 hr 0 min 40 sec) 
Heartbeat CPU 0 instructions: 20000003 cycles: 7523118 heartbeat IPC: 2.66007 cumulative IPC: 2.65847 (Simulation time: 0 hr 1 min 21 sec) 
Heartbeat CPU 0 instructions: 30000002 cycles: 11284312 heartbeat IPC: 2.65873 cumulative IPC: 2.65856 (Simulation time: 0 hr 1 min 58 sec) 
Heartbeat CPU 0 instructions: 40000002 cycles: 15050388 heartbeat IPC: 2.65528 cumulative IPC: 2.65774 (Simulation time: 0 hr 2 min 35 sec) 
Heartbeat CPU 0 instructions: 50000003 cycles: 18805244 heartbeat IPC: 2.66322 cumulative IPC: 2.65883 (Simulation time: 0 hr 3 min 12 sec) 
Heartbeat CPU 0 instructions: 60000000 cycles: 22571633 heartbeat IPC: 2.65506 cumulative IPC: 2.6582 (Simulation time: 0 hr 4 min 0 sec) 
Heartbeat CPU 0 instructions: 70000000 cycles: 26326050 heartbeat IPC: 2.66353 cumulative IPC: 2.65896 (Simulation time: 0 hr 4 min 43 sec) 
Heartbeat CPU 0 instructions: 80000000 cycles: 30093239 heartbeat IPC: 2.6545 cumulative IPC: 2.6584 (Simulation time: 0 hr 5 min 24 sec) 
Heartbeat CPU 0 instructions: 90000001 cycles: 33849776 heartbeat IPC: 2.66203 cumulative IPC: 2.65881 (Simulation time: 0 hr 6 min 4 sec) 
Heartbeat CPU 0 instructions: 100000000 cycles: 37615219 heartbeat IPC: 2.65573 cumulative IPC: 2.6585 (Simulation time: 0 hr 6 min 46 sec) 

Warmup complete CPU 0 instructions: 100000004 cycles: 37615220 (Simulation time: 0 hr 6 min 46 sec) 

Heartbeat CPU 0 instructions: 110000000 cycles: 45641156 heartbeat IPC: 1.24596 cumulative IPC: 1.24596 (Simulation time: 0 hr 7 min 29 sec) 
Heartbeat CPU 0 instructions: 120000000 cycles: 53710897 heartbeat IPC: 1.2392 cumulative IPC: 1.24257 (Simulation time: 0 hr 8 min 13 sec) 
Heartbeat CPU 0 instructions: 130000000 cycles: 61757339 heartbeat IPC: 1.24279 cumulative IPC: 1.24264 (Simulation time: 0 hr 8 min 55 sec) 
Heartbeat CPU 0 instructions: 140000000 cycles: 69800759 heartbeat IPC: 1.24325 cumulative IPC: 1.24279 (Simulation time: 0 hr 9 min 39 sec) 
Heartbeat CPU 0 instructions: 150000001 cycles: 77879872 heartbeat IPC: 1.23776 cumulative IPC: 1.24178 (Simulation time: 0 hr 10 min 22 sec) 
Heartbeat CPU 0 instructions: 160000000 cycles: 85899342 heartbeat IPC: 1.24697 cumulative IPC: 1.24264 (Simulation time: 0 hr 11 min 6 sec) 
Heartbeat CPU 0 instructions: 170000000 cycles: 93988019 heartbeat IPC: 1.2363 cumulative IPC: 1.24173 (Simulation time: 0 hr 11 min 53 sec) 
Heartbeat CPU 0 instructions: 180000000 cycles: 102009396 heartbeat IPC: 1.24667 cumulative IPC: 1.24235 (Simulation time: 0 hr 12 min 34 sec) 
Heartbeat CPU 0 instructions: 190000001 cycles: 110093110 heartbeat IPC: 1.23706 cumulative IPC: 1.24176 (Simulation time: 0 hr 13 min 10 sec) 
Heartbeat CPU 0 instructions: 200000002 cycles: 118120425 heartbeat IPC: 1.24575 cumulative IPC: 1.24216 (Simulation time: 0 hr 13 min 55 sec) 
Finished CPU 0 instructions: 100000001 cycles: 80505206 cumulative IPC: 1.24216 (Simulation time: 0 hr 13 min 55 sec) 

ChampSim completed all CPUs

Region of Interest Statistics

CPU 0 cumulative IPC: 1.24216 instructions: 100000001 cycles: 80505206
L1D TOTAL     ACCESS:   17457514  HIT:   17436077  MISS:      21437
L1D LOAD      ACCESS:   12454086  HIT:   12432714  MISS:      21372
L1D RFO       ACCESS:    5003428  HIT:    5003363  MISS:         65
L1D PREFETCH  ACCESS:          0  HIT:          0  MISS:          0
L1D WRITEBACK ACCESS:          0  HIT:          0  MISS:          0
L1D PREFETCH  REQUESTED:          0  ISSUED:          0  USEFUL:          0  USELESS:          0
L1D AVERAGE MISS LATENCY: 22.0031 cycles
L1I TOTAL     ACCESS:   19899551  HIT:   19899551  MISS:          0
L1I LOAD      ACCESS:   19899551  HIT:   19899551  MISS:          0
L1I RFO       ACCESS:          0  HIT:          0  MISS:          0
L1I PREFETCH  ACCESS:          0  HIT:          0  MISS:          0
L1I WRITEBACK ACCESS:          0  HIT:          0  MISS:          0
L1I PREFETCH  REQUESTED:          0  ISSUED:          0  USEFUL:          0  USELESS:          0
L1I AVERAGE MISS LATENCY: -nan cycles
L2C TOTAL     ACCESS:      62930  HIT:      41746  MISS:      21184
L2C LOAD      ACCESS:      21372  HIT:      20379  MISS:        993
L2C RFO       ACCESS:         65  HIT:         65  MISS:          0
L2C PREFETCH  ACCESS:      20191  HIT:          0  MISS:      20191
L2C WRITEBACK ACCESS:      21302  HIT:      21302  MISS:          0
L2C PREFETCH  REQUESTED:      92061  ISSUED:      86434  USEFUL:      20188  USELESS:          0
L2C AVERAGE MISS LATENCY: 104.381 cycles
LLC TOTAL     ACCESS:     108611  HIT:      87291  MISS:      21320
LLC LOAD      ACCESS:        993  HIT:          0  MISS:        993
LLC RFO       ACCESS:          0  HIT:          0  MISS:          0
LLC PREFETCH  ACCESS:      86434  HIT:      66243  MISS:      20191
LLC WRITEBACK ACCESS:      21184  HIT:      21048  MISS:        136
LLC PREFETCH  REQUESTED:          0  ISSUED:          0  USEFUL:          0  USELESS:       9378
LLC AVERAGE MISS LATENCY: 142.827 cycles
Major fault: 0 Minor fault: 689

L2C Signature Path Prefetcher final stats

DRAM Statistics
 CHANNEL 0
 RQ ROW_BUFFER_HIT:      13932  ROW_BUFFER_MISS:       7252
 DBUS_CONGESTED:      14603
 WQ ROW_BUFFER_HIT:       2521  ROW_BUFFER_MISS:       7149  FULL:          0

 AVG_CONGESTED_CYCLE: 6

CPU 0 Branch Prediction Accuracy: 99.8075% MPKI: 0.31058 Average ROB Occupancy at Mispredict: 173.381

Branch types
NOT_BRANCH: 83868459 83.8685%
BRANCH_DIRECT_JUMP: 826739 0.826739%
BRANCH_INDIRECT: 169449 0.169449%
BRANCH_CONDITIONAL: 10385156 10.3852%
BRANCH_DIRECT_CALL: 2375094 2.37509%
BRANCH_INDIRECT_CALL: 0 0%
BRANCH_RETURN: 2375093 2.37509%
BRANCH_OTHER: 0 0%

