Initialize SIGNATURE TABLE
ST_SET: 1
ST_WAY: 256
ST_TAG_BIT: 16
ST_TAG_MASK: ffff

Initialize PATTERN TABLE
PT_SET: 512
PT_WAY: 4
SIG_DELTA_BIT: 7
C_SIG_BIT: 4
C_DELTA_BIT: 4

Initialize PREFETCH FILTER
FILTER_SET: 1024

*** ChampSim Multicore Out-of-Order Simulator ***

Warmup Instructions: 100000000
Simulation Instructions: 100000000
Number of CPUs: 1
LLC sets: 2048
LLC ways: 16
Off-chip DRAM Size: 4096 MB Channels: 1 Width: 64-bit Data Rate: 3200 MT/s

CPU 0 runs /home/shubhayu/ChampSim/traces/410.bwaves-945B.champsimtrace.xz
CPU 0 GSHARE branch predictor
CPU 0 L1I next line prefetcher
CPU 0 L1D next line prefetcher
LLC Next Line Prefetcher
Heartbeat CPU 0 instructions: 10000001 cycles: 3203624 heartbeat IPC: 3.12147 cumulative IPC: 3.12147 (Simulation time: 0 hr 0 min 15 sec) 
Heartbeat CPU 0 instructions: 20000000 cycles: 6404181 heartbeat IPC: 3.12446 cumulative IPC: 3.12296 (Simulation time: 0 hr 0 min 30 sec) 
Heartbeat CPU 0 instructions: 30000000 cycles: 9602803 heartbeat IPC: 3.12635 cumulative IPC: 3.12409 (Simulation time: 0 hr 0 min 45 sec) 
Heartbeat CPU 0 instructions: 40000002 cycles: 12799076 heartbeat IPC: 3.12864 cumulative IPC: 3.12523 (Simulation time: 0 hr 0 min 59 sec) 
Heartbeat CPU 0 instructions: 50000003 cycles: 15997214 heartbeat IPC: 3.12682 cumulative IPC: 3.12554 (Simulation time: 0 hr 1 min 14 sec) 
Heartbeat CPU 0 instructions: 60000002 cycles: 19193793 heartbeat IPC: 3.12834 cumulative IPC: 3.12601 (Simulation time: 0 hr 1 min 29 sec) 
Heartbeat CPU 0 instructions: 70000000 cycles: 22392686 heartbeat IPC: 3.12608 cumulative IPC: 3.12602 (Simulation time: 0 hr 1 min 44 sec) 
Heartbeat CPU 0 instructions: 80000000 cycles: 25593808 heartbeat IPC: 3.1239 cumulative IPC: 3.12576 (Simulation time: 0 hr 1 min 59 sec) 
Heartbeat CPU 0 instructions: 90000000 cycles: 28792950 heartbeat IPC: 3.12584 cumulative IPC: 3.12577 (Simulation time: 0 hr 2 min 13 sec) 
Heartbeat CPU 0 instructions: 100000001 cycles: 31993630 heartbeat IPC: 3.12434 cumulative IPC: 3.12562 (Simulation time: 0 hr 2 min 28 sec) 

Warmup complete CPU 0 instructions: 100000001 cycles: 31993630 (Simulation time: 0 hr 2 min 28 sec) 

Heartbeat CPU 0 instructions: 110000000 cycles: 39009634 heartbeat IPC: 1.42531 cumulative IPC: 1.42531 (Simulation time: 0 hr 2 min 39 sec) 
Heartbeat CPU 0 instructions: 120000001 cycles: 46002817 heartbeat IPC: 1.42996 cumulative IPC: 1.42763 (Simulation time: 0 hr 2 min 51 sec) 
Heartbeat CPU 0 instructions: 130000003 cycles: 53016369 heartbeat IPC: 1.42581 cumulative IPC: 1.42703 (Simulation time: 0 hr 3 min 3 sec) 
Heartbeat CPU 0 instructions: 140000000 cycles: 60052095 heartbeat IPC: 1.42132 cumulative IPC: 1.42559 (Simulation time: 0 hr 3 min 15 sec) 
Heartbeat CPU 0 instructions: 150000003 cycles: 67053925 heartbeat IPC: 1.4282 cumulative IPC: 1.42611 (Simulation time: 0 hr 3 min 27 sec) 
Heartbeat CPU 0 instructions: 160000001 cycles: 74109387 heartbeat IPC: 1.41734 cumulative IPC: 1.42464 (Simulation time: 0 hr 3 min 39 sec) 
Heartbeat CPU 0 instructions: 170000001 cycles: 81150533 heartbeat IPC: 1.42022 cumulative IPC: 1.42401 (Simulation time: 0 hr 9 min 14 sec) 
Heartbeat CPU 0 instructions: 180000002 cycles: 88168627 heartbeat IPC: 1.42489 cumulative IPC: 1.42412 (Simulation time: 0 hr 9 min 25 sec) 
Heartbeat CPU 0 instructions: 190000002 cycles: 95180139 heartbeat IPC: 1.42623 cumulative IPC: 1.42435 (Simulation time: 0 hr 9 min 37 sec) 
Heartbeat CPU 0 instructions: 200000002 cycles: 102223415 heartbeat IPC: 1.41979 cumulative IPC: 1.4239 (Simulation time: 0 hr 9 min 48 sec) 
Finished CPU 0 instructions: 100000001 cycles: 70229785 cumulative IPC: 1.4239 (Simulation time: 0 hr 9 min 48 sec) 

ChampSim completed all CPUs

Region of Interest Statistics

CPU 0 cumulative IPC: 1.4239 instructions: 100000001 cycles: 70229785
L1D TOTAL     ACCESS:   31733092  HIT:   31730780  MISS:       2312
L1D LOAD      ACCESS:   12950034  HIT:   12950012  MISS:         22
L1D RFO       ACCESS:    6194673  HIT:    6192611  MISS:       2062
L1D PREFETCH  ACCESS:   12588385  HIT:   12588157  MISS:        228
L1D WRITEBACK ACCESS:          0  HIT:          0  MISS:          0
L1D PREFETCH  REQUESTED:   12950117  ISSUED:   12590167  USEFUL:        214  USELESS:         37
L1D AVERAGE MISS LATENCY: 108.095 cycles
L1I TOTAL     ACCESS:   17749844  HIT:   17749844  MISS:          0
L1I LOAD      ACCESS:   17749844  HIT:   17749844  MISS:          0
L1I RFO       ACCESS:          0  HIT:          0  MISS:          0
L1I PREFETCH  ACCESS:          0  HIT:          0  MISS:          0
L1I WRITEBACK ACCESS:          0  HIT:          0  MISS:          0
L1I PREFETCH  REQUESTED:          0  ISSUED:          0  USEFUL:          0  USELESS:          0
L1I AVERAGE MISS LATENCY: -nan cycles
L2C TOTAL     ACCESS:       4535  HIT:       2269  MISS:       2266
L2C LOAD      ACCESS:         19  HIT:         16  MISS:          3
L2C RFO       ACCESS:       1978  HIT:         12  MISS:       1966
L2C PREFETCH  ACCESS:        458  HIT:        161  MISS:        297
L2C WRITEBACK ACCESS:       2080  HIT:       2080  MISS:          0
L2C PREFETCH  REQUESTED:       1605  ISSUED:       1605  USEFUL:          5  USELESS:          0
L2C AVERAGE MISS LATENCY: 101.347 cycles
LLC TOTAL     ACCESS:       3948  HIT:       1669  MISS:       2279
LLC LOAD      ACCESS:          3  HIT:          0  MISS:          3
LLC RFO       ACCESS:       1964  HIT:        101  MISS:       1863
LLC PREFETCH  ACCESS:       1981  HIT:       1568  MISS:        413
LLC WRITEBACK ACCESS:          0  HIT:          0  MISS:          0
LLC PREFETCH  REQUESTED:       1732  ISSUED:       1703  USEFUL:        101  USELESS:          0
LLC AVERAGE MISS LATENCY: 85.9 cycles
Major fault: 0 Minor fault: 75
CPU 0 L1I next line prefetcher final stats
CPU 0 L1D next line prefetcher final stats
LLC Next Line Prefetcher Final Stats: none

DRAM Statistics
 CHANNEL 0
 RQ ROW_BUFFER_HIT:       1955  ROW_BUFFER_MISS:        324
 DBUS_CONGESTED:         87
 WQ ROW_BUFFER_HIT:          0  ROW_BUFFER_MISS:          0  FULL:          0

 AVG_CONGESTED_CYCLE: 6

CPU 0 Branch Prediction Accuracy: 94.768% MPKI: 5.7403 Average ROB Occupancy at Mispredict: 69.4607

Branch types
NOT_BRANCH: 89028091 89.0281%
BRANCH_DIRECT_JUMP: 203031 0.203031%
BRANCH_INDIRECT: 0 0%
BRANCH_CONDITIONAL: 10720632 10.7206%
BRANCH_DIRECT_CALL: 23982 0.023982%
BRANCH_INDIRECT_CALL: 0 0%
BRANCH_RETURN: 23981 0.023981%
BRANCH_OTHER: 0 0%

