
*** ChampSim Multicore Out-of-Order Simulator ***

Warmup Instructions: 100000000
Simulation Instructions: 100000000
Number of CPUs: 1
LLC sets: 2048
LLC ways: 16
Off-chip DRAM Size: 4096 MB Channels: 1 Width: 64-bit Data Rate: 3200 MT/s

CPU 0 runs /home/sai/ChampSim/traces/400.perlbench-41B.champsimtrace.xz
CPU 0 Bimodal branch predictor
CPU 0 L2C IP-based stride prefetcher
Initialize DRRIP state
Assign rand_sets[0]: 454  LLC: 2048
rand_sets[0]: 454
Assign rand_sets[1]: 1662  LLC: 2048
rand_sets[1]: 1662
Assign rand_sets[2]: 1921  LLC: 2048
rand_sets[2]: 1921
Assign rand_sets[3]: 1131  LLC: 2048
rand_sets[3]: 1131
Assign rand_sets[4]: 331  LLC: 2048
rand_sets[4]: 331
Assign rand_sets[5]: 1531  LLC: 2048
rand_sets[5]: 1531
Assign rand_sets[6]: 482  LLC: 2048
rand_sets[6]: 482
Assign rand_sets[7]: 1275  LLC: 2048
rand_sets[7]: 1275
Assign rand_sets[8]: 1876  LLC: 2048
rand_sets[8]: 1876
Assign rand_sets[9]: 2038  LLC: 2048
rand_sets[9]: 2038
Assign rand_sets[10]: 701  LLC: 2048
rand_sets[10]: 701
Assign rand_sets[11]: 479  LLC: 2048
rand_sets[11]: 479
Assign rand_sets[12]: 892  LLC: 2048
rand_sets[12]: 892
Assign rand_sets[13]: 1820  LLC: 2048
rand_sets[13]: 1820
Assign rand_sets[14]: 1505  LLC: 2048
rand_sets[14]: 1505
Assign rand_sets[15]: 1159  LLC: 2048
rand_sets[15]: 1159
Assign rand_sets[16]: 513  LLC: 2048
rand_sets[16]: 513
Assign rand_sets[17]: 703  LLC: 2048
rand_sets[17]: 703
Assign rand_sets[18]: 561  LLC: 2048
rand_sets[18]: 561
Assign rand_sets[19]: 990  LLC: 2048
rand_sets[19]: 990
Assign rand_sets[20]: 342  LLC: 2048
rand_sets[20]: 342
Assign rand_sets[21]: 882  LLC: 2048
rand_sets[21]: 882
Assign rand_sets[22]: 15  LLC: 2048
rand_sets[22]: 15
Assign rand_sets[23]: 71  LLC: 2048
rand_sets[23]: 71
Assign rand_sets[24]: 1127  LLC: 2048
rand_sets[24]: 1127
Assign rand_sets[25]: 1382  LLC: 2048
rand_sets[25]: 1382
Assign rand_sets[26]: 647  LLC: 2048
rand_sets[26]: 647
Assign rand_sets[27]: 857  LLC: 2048
rand_sets[27]: 857
Assign rand_sets[28]: 1450  LLC: 2048
rand_sets[28]: 1450
Assign rand_sets[29]: 1160  LLC: 2048
rand_sets[29]: 1160
Assign rand_sets[30]: 1852  LLC: 2048
rand_sets[30]: 1852
Assign rand_sets[31]: 1881  LLC: 2048
rand_sets[31]: 1881
Assign rand_sets[32]: 1770  LLC: 2048
rand_sets[32]: 1770
Assign rand_sets[33]: 1622  LLC: 2048
rand_sets[33]: 1622
Assign rand_sets[34]: 275  LLC: 2048
rand_sets[34]: 275
Assign rand_sets[35]: 635  LLC: 2048
rand_sets[35]: 635
Assign rand_sets[36]: 466  LLC: 2048
rand_sets[36]: 466
Assign rand_sets[37]: 1413  LLC: 2048
rand_sets[37]: 1413
Assign rand_sets[38]: 417  LLC: 2048
rand_sets[38]: 417
Assign rand_sets[39]: 472  LLC: 2048
rand_sets[39]: 472
Assign rand_sets[40]: 1340  LLC: 2048
rand_sets[40]: 1340
Assign rand_sets[41]: 852  LLC: 2048
rand_sets[41]: 852
Assign rand_sets[42]: 1365  LLC: 2048
rand_sets[42]: 1365
Assign rand_sets[43]: 47  LLC: 2048
rand_sets[43]: 47
Assign rand_sets[44]: 823  LLC: 2048
rand_sets[44]: 823
Assign rand_sets[45]: 686  LLC: 2048
rand_sets[45]: 686
Assign rand_sets[46]: 1637  LLC: 2048
rand_sets[46]: 1637
Assign rand_sets[47]: 1115  LLC: 2048
rand_sets[47]: 1115
Assign rand_sets[48]: 986  LLC: 2048
rand_sets[48]: 986
Assign rand_sets[49]: 258  LLC: 2048
rand_sets[49]: 258
Assign rand_sets[50]: 633  LLC: 2048
rand_sets[50]: 633
Assign rand_sets[51]: 920  LLC: 2048
rand_sets[51]: 920
Assign rand_sets[52]: 204  LLC: 2048
rand_sets[52]: 204
Assign rand_sets[53]: 227  LLC: 2048
rand_sets[53]: 227
Assign rand_sets[54]: 1818  LLC: 2048
rand_sets[54]: 1818
Assign rand_sets[55]: 886  LLC: 2048
rand_sets[55]: 886
Assign rand_sets[56]: 1422  LLC: 2048
rand_sets[56]: 1422
Assign rand_sets[57]: 607  LLC: 2048
rand_sets[57]: 607
Assign rand_sets[58]: 217  LLC: 2048
rand_sets[58]: 217
Assign rand_sets[59]: 1945  LLC: 2048
rand_sets[59]: 1945
Assign rand_sets[60]: 143  LLC: 2048
rand_sets[60]: 143
Assign rand_sets[61]: 1311  LLC: 2048
rand_sets[61]: 1311
Assign rand_sets[62]: 319  LLC: 2048
rand_sets[62]: 319
Assign rand_sets[63]: 1846  LLC: 2048
rand_sets[63]: 1846
Heartbeat CPU 0 instructions: 10000003 cycles: 4836741 heartbeat IPC: 2.06751 cumulative IPC: 2.06751 (Simulation time: 0 hr 1 min 32 sec) 
Heartbeat CPU 0 instructions: 20000001 cycles: 9624297 heartbeat IPC: 2.08875 cumulative IPC: 2.07807 (Simulation time: 0 hr 3 min 4 sec) 
Heartbeat CPU 0 instructions: 30000001 cycles: 13929098 heartbeat IPC: 2.32299 cumulative IPC: 2.15376 (Simulation time: 0 hr 4 min 25 sec) 
Heartbeat CPU 0 instructions: 40000001 cycles: 18518155 heartbeat IPC: 2.1791 cumulative IPC: 2.16004 (Simulation time: 0 hr 5 min 48 sec) 
Heartbeat CPU 0 instructions: 50000003 cycles: 23006084 heartbeat IPC: 2.2282 cumulative IPC: 2.17334 (Simulation time: 0 hr 7 min 11 sec) 
Heartbeat CPU 0 instructions: 60000000 cycles: 26962355 heartbeat IPC: 2.52763 cumulative IPC: 2.22532 (Simulation time: 0 hr 8 min 30 sec) 
Heartbeat CPU 0 instructions: 70000003 cycles: 31343984 heartbeat IPC: 2.28226 cumulative IPC: 2.23328 (Simulation time: 0 hr 9 min 36 sec) 
Heartbeat CPU 0 instructions: 80000000 cycles: 35598676 heartbeat IPC: 2.35035 cumulative IPC: 2.24727 (Simulation time: 0 hr 10 min 48 sec) 
Heartbeat CPU 0 instructions: 90000000 cycles: 39893592 heartbeat IPC: 2.32833 cumulative IPC: 2.256 (Simulation time: 0 hr 12 min 15 sec) 
Heartbeat CPU 0 instructions: 100000001 cycles: 44268146 heartbeat IPC: 2.28595 cumulative IPC: 2.25896 (Simulation time: 0 hr 13 min 44 sec) 

Warmup complete CPU 0 instructions: 100000001 cycles: 44268146 (Simulation time: 0 hr 13 min 44 sec) 

Heartbeat CPU 0 instructions: 110000000 cycles: 55116085 heartbeat IPC: 0.921834 cumulative IPC: 0.921834 (Simulation time: 0 hr 14 min 54 sec) 
Heartbeat CPU 0 instructions: 120000001 cycles: 66869126 heartbeat IPC: 0.850844 cumulative IPC: 0.884917 (Simulation time: 0 hr 16 min 10 sec) 
Heartbeat CPU 0 instructions: 130000000 cycles: 79302883 heartbeat IPC: 0.804262 cumulative IPC: 0.856293 (Simulation time: 0 hr 17 min 28 sec) 
Heartbeat CPU 0 instructions: 140000002 cycles: 90837998 heartbeat IPC: 0.866918 cumulative IPC: 0.858925 (Simulation time: 0 hr 18 min 14 sec) 
Heartbeat CPU 0 instructions: 150000001 cycles: 102516136 heartbeat IPC: 0.856301 cumulative IPC: 0.858399 (Simulation time: 0 hr 19 min 14 sec) 
Heartbeat CPU 0 instructions: 160000000 cycles: 113903376 heartbeat IPC: 0.878176 cumulative IPC: 0.861633 (Simulation time: 0 hr 20 min 24 sec) 
Heartbeat CPU 0 instructions: 170000000 cycles: 129442824 heartbeat IPC: 0.643524 cumulative IPC: 0.82184 (Simulation time: 0 hr 21 min 25 sec) 
Heartbeat CPU 0 instructions: 180000001 cycles: 145998715 heartbeat IPC: 0.604015 cumulative IPC: 0.786391 (Simulation time: 0 hr 22 min 45 sec) 
Heartbeat CPU 0 instructions: 190000000 cycles: 163453622 heartbeat IPC: 0.572905 cumulative IPC: 0.755126 (Simulation time: 0 hr 24 min 6 sec) 
Heartbeat CPU 0 instructions: 200000003 cycles: 174715423 heartbeat IPC: 0.887958 cumulative IPC: 0.766593 (Simulation time: 0 hr 25 min 18 sec) 
Finished CPU 0 instructions: 100000002 cycles: 130447277 cumulative IPC: 0.766593 (Simulation time: 0 hr 25 min 18 sec) 

ChampSim completed all CPUs

Region of Interest Statistics

CPU 0 cumulative IPC: 0.766593 instructions: 100000002 cycles: 130447277
L1D TOTAL     ACCESS:   31258454  HIT:   31065294  MISS:     193160
L1D LOAD      ACCESS:   17710790  HIT:   17537723  MISS:     173067
L1D RFO       ACCESS:   13547664  HIT:   13527571  MISS:      20093
L1D PREFETCH  ACCESS:          0  HIT:          0  MISS:          0
L1D WRITEBACK ACCESS:          0  HIT:          0  MISS:          0
L1D PREFETCH  REQUESTED:          0  ISSUED:          0  USEFUL:          0  USELESS:          0
L1D AVERAGE MISS LATENCY: 75.2517 cycles
L1I TOTAL     ACCESS:   18899411  HIT:   18725591  MISS:     173820
L1I LOAD      ACCESS:   18899411  HIT:   18725591  MISS:     173820
L1I RFO       ACCESS:          0  HIT:          0  MISS:          0
L1I PREFETCH  ACCESS:          0  HIT:          0  MISS:          0
L1I WRITEBACK ACCESS:          0  HIT:          0  MISS:          0
L1I PREFETCH  REQUESTED:          0  ISSUED:          0  USEFUL:          0  USELESS:          0
L1I AVERAGE MISS LATENCY: 17.5435 cycles
L2C TOTAL     ACCESS:     448845  HIT:     352446  MISS:      96399
L2C LOAD      ACCESS:     346885  HIT:     265716  MISS:      81169
L2C RFO       ACCESS:      20091  HIT:      13111  MISS:       6980
L2C PREFETCH  ACCESS:      28638  HIT:      20656  MISS:       7982
L2C WRITEBACK ACCESS:      53231  HIT:      52963  MISS:        268
L2C PREFETCH  REQUESTED:      29227  ISSUED:      29227  USEFUL:       5564  USELESS:       2485
L2C AVERAGE MISS LATENCY: 139.871 cycles
LLC TOTAL     ACCESS:     114004  HIT:      42234  MISS:      71770
LLC LOAD      ACCESS:      81078  HIT:      20862  MISS:      60216
LLC RFO       ACCESS:       6980  HIT:       2740  MISS:       4240
LLC PREFETCH  ACCESS:       8073  HIT:        955  MISS:       7118
LLC WRITEBACK ACCESS:      17873  HIT:      17677  MISS:        196
LLC PREFETCH  REQUESTED:          0  ISSUED:          0  USEFUL:        131  USELESS:       7521
LLC AVERAGE MISS LATENCY: 147.402 cycles
Major fault: 0 Minor fault: 4637
CPU 0 L2C PC-based stride prefetcher final stats

DRAM Statistics
 CHANNEL 0
 RQ ROW_BUFFER_HIT:      17815  ROW_BUFFER_MISS:      53758
 DBUS_CONGESTED:       5314
 WQ ROW_BUFFER_HIT:       4115  ROW_BUFFER_MISS:       7056  FULL:          0

 AVG_CONGESTED_CYCLE: 6

CPU 0 Branch Prediction Accuracy: 95.2818% MPKI: 9.76349 Average ROB Occupancy at Mispredict: 49.5821

Branch types
NOT_BRANCH: 79306395 79.3064%
BRANCH_DIRECT_JUMP: 1595153 1.59515%
BRANCH_INDIRECT: 886650 0.88665%
BRANCH_CONDITIONAL: 16112828 16.1128%
BRANCH_DIRECT_CALL: 911124 0.911124%
BRANCH_INDIRECT_CALL: 138180 0.13818%
BRANCH_RETURN: 1049305 1.0493%
BRANCH_OTHER: 0 0%

