
*** ChampSim Multicore Out-of-Order Simulator ***

Warmup Instructions: 100000000
Simulation Instructions: 100000000
Number of CPUs: 1
LLC sets: 2048
LLC ways: 16
Off-chip DRAM Size: 4096 MB Channels: 1 Width: 64-bit Data Rate: 3200 MT/s

CPU 0 runs /home/sai/ChampSim/traces/403.gcc-48B.champsimtrace.xz
CPU 0 Bimodal branch predictor
CPU 0 L2C IP-based stride prefetcher
Initialize DRRIP state
Assign rand_sets[0]: 454  LLC: 2048
rand_sets[0]: 454
Assign rand_sets[1]: 1662  LLC: 2048
rand_sets[1]: 1662
Assign rand_sets[2]: 1921  LLC: 2048
rand_sets[2]: 1921
Assign rand_sets[3]: 1131  LLC: 2048
rand_sets[3]: 1131
Assign rand_sets[4]: 331  LLC: 2048
rand_sets[4]: 331
Assign rand_sets[5]: 1531  LLC: 2048
rand_sets[5]: 1531
Assign rand_sets[6]: 482  LLC: 2048
rand_sets[6]: 482
Assign rand_sets[7]: 1275  LLC: 2048
rand_sets[7]: 1275
Assign rand_sets[8]: 1876  LLC: 2048
rand_sets[8]: 1876
Assign rand_sets[9]: 2038  LLC: 2048
rand_sets[9]: 2038
Assign rand_sets[10]: 701  LLC: 2048
rand_sets[10]: 701
Assign rand_sets[11]: 479  LLC: 2048
rand_sets[11]: 479
Assign rand_sets[12]: 892  LLC: 2048
rand_sets[12]: 892
Assign rand_sets[13]: 1820  LLC: 2048
rand_sets[13]: 1820
Assign rand_sets[14]: 1505  LLC: 2048
rand_sets[14]: 1505
Assign rand_sets[15]: 1159  LLC: 2048
rand_sets[15]: 1159
Assign rand_sets[16]: 513  LLC: 2048
rand_sets[16]: 513
Assign rand_sets[17]: 703  LLC: 2048
rand_sets[17]: 703
Assign rand_sets[18]: 561  LLC: 2048
rand_sets[18]: 561
Assign rand_sets[19]: 990  LLC: 2048
rand_sets[19]: 990
Assign rand_sets[20]: 342  LLC: 2048
rand_sets[20]: 342
Assign rand_sets[21]: 882  LLC: 2048
rand_sets[21]: 882
Assign rand_sets[22]: 15  LLC: 2048
rand_sets[22]: 15
Assign rand_sets[23]: 71  LLC: 2048
rand_sets[23]: 71
Assign rand_sets[24]: 1127  LLC: 2048
rand_sets[24]: 1127
Assign rand_sets[25]: 1382  LLC: 2048
rand_sets[25]: 1382
Assign rand_sets[26]: 647  LLC: 2048
rand_sets[26]: 647
Assign rand_sets[27]: 857  LLC: 2048
rand_sets[27]: 857
Assign rand_sets[28]: 1450  LLC: 2048
rand_sets[28]: 1450
Assign rand_sets[29]: 1160  LLC: 2048
rand_sets[29]: 1160
Assign rand_sets[30]: 1852  LLC: 2048
rand_sets[30]: 1852
Assign rand_sets[31]: 1881  LLC: 2048
rand_sets[31]: 1881
Assign rand_sets[32]: 1770  LLC: 2048
rand_sets[32]: 1770
Assign rand_sets[33]: 1622  LLC: 2048
rand_sets[33]: 1622
Assign rand_sets[34]: 275  LLC: 2048
rand_sets[34]: 275
Assign rand_sets[35]: 635  LLC: 2048
rand_sets[35]: 635
Assign rand_sets[36]: 466  LLC: 2048
rand_sets[36]: 466
Assign rand_sets[37]: 1413  LLC: 2048
rand_sets[37]: 1413
Assign rand_sets[38]: 417  LLC: 2048
rand_sets[38]: 417
Assign rand_sets[39]: 472  LLC: 2048
rand_sets[39]: 472
Assign rand_sets[40]: 1340  LLC: 2048
rand_sets[40]: 1340
Assign rand_sets[41]: 852  LLC: 2048
rand_sets[41]: 852
Assign rand_sets[42]: 1365  LLC: 2048
rand_sets[42]: 1365
Assign rand_sets[43]: 47  LLC: 2048
rand_sets[43]: 47
Assign rand_sets[44]: 823  LLC: 2048
rand_sets[44]: 823
Assign rand_sets[45]: 686  LLC: 2048
rand_sets[45]: 686
Assign rand_sets[46]: 1637  LLC: 2048
rand_sets[46]: 1637
Assign rand_sets[47]: 1115  LLC: 2048
rand_sets[47]: 1115
Assign rand_sets[48]: 986  LLC: 2048
rand_sets[48]: 986
Assign rand_sets[49]: 258  LLC: 2048
rand_sets[49]: 258
Assign rand_sets[50]: 633  LLC: 2048
rand_sets[50]: 633
Assign rand_sets[51]: 920  LLC: 2048
rand_sets[51]: 920
Assign rand_sets[52]: 204  LLC: 2048
rand_sets[52]: 204
Assign rand_sets[53]: 227  LLC: 2048
rand_sets[53]: 227
Assign rand_sets[54]: 1818  LLC: 2048
rand_sets[54]: 1818
Assign rand_sets[55]: 886  LLC: 2048
rand_sets[55]: 886
Assign rand_sets[56]: 1422  LLC: 2048
rand_sets[56]: 1422
Assign rand_sets[57]: 607  LLC: 2048
rand_sets[57]: 607
Assign rand_sets[58]: 217  LLC: 2048
rand_sets[58]: 217
Assign rand_sets[59]: 1945  LLC: 2048
rand_sets[59]: 1945
Assign rand_sets[60]: 143  LLC: 2048
rand_sets[60]: 143
Assign rand_sets[61]: 1311  LLC: 2048
rand_sets[61]: 1311
Assign rand_sets[62]: 319  LLC: 2048
rand_sets[62]: 319
Assign rand_sets[63]: 1846  LLC: 2048
rand_sets[63]: 1846
Heartbeat CPU 0 instructions: 10000002 cycles: 4169562 heartbeat IPC: 2.39833 cumulative IPC: 2.39833 (Simulation time: 0 hr 0 min 42 sec) 
Heartbeat CPU 0 instructions: 20000000 cycles: 8340935 heartbeat IPC: 2.39729 cumulative IPC: 2.39781 (Simulation time: 0 hr 1 min 20 sec) 
Heartbeat CPU 0 instructions: 30000001 cycles: 12510346 heartbeat IPC: 2.39842 cumulative IPC: 2.39802 (Simulation time: 0 hr 1 min 58 sec) 
Heartbeat CPU 0 instructions: 40000002 cycles: 16679385 heartbeat IPC: 2.39863 cumulative IPC: 2.39817 (Simulation time: 0 hr 2 min 32 sec) 
Heartbeat CPU 0 instructions: 50000002 cycles: 20853761 heartbeat IPC: 2.39557 cumulative IPC: 2.39765 (Simulation time: 0 hr 3 min 7 sec) 
Heartbeat CPU 0 instructions: 60000001 cycles: 25039830 heartbeat IPC: 2.38888 cumulative IPC: 2.39618 (Simulation time: 0 hr 3 min 42 sec) 
Heartbeat CPU 0 instructions: 70000001 cycles: 29204409 heartbeat IPC: 2.4012 cumulative IPC: 2.3969 (Simulation time: 0 hr 4 min 16 sec) 
Heartbeat CPU 0 instructions: 80000001 cycles: 33368636 heartbeat IPC: 2.40141 cumulative IPC: 2.39746 (Simulation time: 0 hr 4 min 49 sec) 
Heartbeat CPU 0 instructions: 90000002 cycles: 37537334 heartbeat IPC: 2.39883 cumulative IPC: 2.39761 (Simulation time: 0 hr 5 min 28 sec) 
Heartbeat CPU 0 instructions: 100000001 cycles: 41712831 heartbeat IPC: 2.39492 cumulative IPC: 2.39734 (Simulation time: 0 hr 6 min 13 sec) 

Warmup complete CPU 0 instructions: 100000001 cycles: 41712831 (Simulation time: 0 hr 6 min 13 sec) 

Heartbeat CPU 0 instructions: 110000000 cycles: 49026180 heartbeat IPC: 1.36736 cumulative IPC: 1.36736 (Simulation time: 0 hr 6 min 52 sec) 
Heartbeat CPU 0 instructions: 120000000 cycles: 56392710 heartbeat IPC: 1.35749 cumulative IPC: 1.36241 (Simulation time: 0 hr 7 min 33 sec) 
Heartbeat CPU 0 instructions: 130000003 cycles: 63732697 heartbeat IPC: 1.3624 cumulative IPC: 1.36241 (Simulation time: 0 hr 8 min 12 sec) 
Heartbeat CPU 0 instructions: 140000002 cycles: 71078482 heartbeat IPC: 1.36132 cumulative IPC: 1.36214 (Simulation time: 0 hr 8 min 54 sec) 
Heartbeat CPU 0 instructions: 150000000 cycles: 78410111 heartbeat IPC: 1.36395 cumulative IPC: 1.3625 (Simulation time: 0 hr 9 min 36 sec) 
Heartbeat CPU 0 instructions: 160000001 cycles: 85742177 heartbeat IPC: 1.36387 cumulative IPC: 1.36273 (Simulation time: 0 hr 10 min 25 sec) 
Heartbeat CPU 0 instructions: 170000002 cycles: 93075417 heartbeat IPC: 1.36365 cumulative IPC: 1.36286 (Simulation time: 0 hr 11 min 3 sec) 
Heartbeat CPU 0 instructions: 180000000 cycles: 100394056 heartbeat IPC: 1.36637 cumulative IPC: 1.3633 (Simulation time: 0 hr 11 min 41 sec) 
Heartbeat CPU 0 instructions: 190000000 cycles: 107731789 heartbeat IPC: 1.36282 cumulative IPC: 1.36324 (Simulation time: 0 hr 12 min 19 sec) 
Heartbeat CPU 0 instructions: 200000002 cycles: 115084258 heartbeat IPC: 1.36009 cumulative IPC: 1.36293 (Simulation time: 0 hr 12 min 58 sec) 
Finished CPU 0 instructions: 100000001 cycles: 73371427 cumulative IPC: 1.36293 (Simulation time: 0 hr 12 min 58 sec) 

ChampSim completed all CPUs

Region of Interest Statistics

CPU 0 cumulative IPC: 1.36293 instructions: 100000001 cycles: 73371427
L1D TOTAL     ACCESS:   34213369  HIT:   34124273  MISS:      89096
L1D LOAD      ACCESS:   16481352  HIT:   16395588  MISS:      85764
L1D RFO       ACCESS:   17732017  HIT:   17728685  MISS:       3332
L1D PREFETCH  ACCESS:          0  HIT:          0  MISS:          0
L1D WRITEBACK ACCESS:          0  HIT:          0  MISS:          0
L1D PREFETCH  REQUESTED:          0  ISSUED:          0  USEFUL:          0  USELESS:          0
L1D AVERAGE MISS LATENCY: 56.5528 cycles
L1I TOTAL     ACCESS:   26339943  HIT:   26339943  MISS:          0
L1I LOAD      ACCESS:   26339943  HIT:   26339943  MISS:          0
L1I RFO       ACCESS:          0  HIT:          0  MISS:          0
L1I PREFETCH  ACCESS:          0  HIT:          0  MISS:          0
L1I WRITEBACK ACCESS:          0  HIT:          0  MISS:          0
L1I PREFETCH  REQUESTED:          0  ISSUED:          0  USEFUL:          0  USELESS:          0
L1I AVERAGE MISS LATENCY: -nan cycles
L2C TOTAL     ACCESS:     108300  HIT:      82672  MISS:      25628
L2C LOAD      ACCESS:      85764  HIT:      68532  MISS:      17232
L2C RFO       ACCESS:       3332  HIT:        288  MISS:       3044
L2C PREFETCH  ACCESS:      10256  HIT:       4917  MISS:       5339
L2C WRITEBACK ACCESS:       8948  HIT:       8935  MISS:         13
L2C PREFETCH  REQUESTED:      10266  ISSUED:      10266  USEFUL:       4216  USELESS:       1211
L2C AVERAGE MISS LATENCY: 179.616 cycles
LLC TOTAL     ACCESS:      33122  HIT:       7985  MISS:      25137
LLC LOAD      ACCESS:      17222  HIT:        590  MISS:      16632
LLC RFO       ACCESS:       3044  HIT:          1  MISS:       3043
LLC PREFETCH  ACCESS:       5349  HIT:         12  MISS:       5337
LLC WRITEBACK ACCESS:       7507  HIT:       7382  MISS:        125
LLC PREFETCH  REQUESTED:          0  ISSUED:          0  USEFUL:          4  USELESS:       3791
LLC AVERAGE MISS LATENCY: 152.343 cycles
Major fault: 0 Minor fault: 2907
CPU 0 L2C PC-based stride prefetcher final stats

DRAM Statistics
 CHANNEL 0
 RQ ROW_BUFFER_HIT:       5335  ROW_BUFFER_MISS:      19677
 DBUS_CONGESTED:       2590
 WQ ROW_BUFFER_HIT:        867  ROW_BUFFER_MISS:       3518  FULL:          0

 AVG_CONGESTED_CYCLE: 6

CPU 0 Branch Prediction Accuracy: 99.3715% MPKI: 1.39981 Average ROB Occupancy at Mispredict: 36.369

Branch types
NOT_BRANCH: 77728258 77.7283%
BRANCH_DIRECT_JUMP: 3021554 3.02155%
BRANCH_INDIRECT: 1481028 1.48103%
BRANCH_CONDITIONAL: 14722987 14.723%
BRANCH_DIRECT_CALL: 1514790 1.51479%
BRANCH_INDIRECT_CALL: 8297 0.008297%
BRANCH_RETURN: 1523087 1.52309%
BRANCH_OTHER: 0 0%

