
*** ChampSim Multicore Out-of-Order Simulator ***

Warmup Instructions: 100000000
Simulation Instructions: 100000000
Number of CPUs: 1
LLC sets: 2048
LLC ways: 16
Off-chip DRAM Size: 4096 MB Channels: 1 Width: 64-bit Data Rate: 3200 MT/s

CPU 0 runs /home/sai/ChampSim/traces/410.bwaves-945B.champsimtrace.xz
CPU 0 Bimodal branch predictor
CPU 0 L2C IP-based stride prefetcher
Initialize DRRIP state
Assign rand_sets[0]: 454  LLC: 2048
rand_sets[0]: 454
Assign rand_sets[1]: 1662  LLC: 2048
rand_sets[1]: 1662
Assign rand_sets[2]: 1921  LLC: 2048
rand_sets[2]: 1921
Assign rand_sets[3]: 1131  LLC: 2048
rand_sets[3]: 1131
Assign rand_sets[4]: 331  LLC: 2048
rand_sets[4]: 331
Assign rand_sets[5]: 1531  LLC: 2048
rand_sets[5]: 1531
Assign rand_sets[6]: 482  LLC: 2048
rand_sets[6]: 482
Assign rand_sets[7]: 1275  LLC: 2048
rand_sets[7]: 1275
Assign rand_sets[8]: 1876  LLC: 2048
rand_sets[8]: 1876
Assign rand_sets[9]: 2038  LLC: 2048
rand_sets[9]: 2038
Assign rand_sets[10]: 701  LLC: 2048
rand_sets[10]: 701
Assign rand_sets[11]: 479  LLC: 2048
rand_sets[11]: 479
Assign rand_sets[12]: 892  LLC: 2048
rand_sets[12]: 892
Assign rand_sets[13]: 1820  LLC: 2048
rand_sets[13]: 1820
Assign rand_sets[14]: 1505  LLC: 2048
rand_sets[14]: 1505
Assign rand_sets[15]: 1159  LLC: 2048
rand_sets[15]: 1159
Assign rand_sets[16]: 513  LLC: 2048
rand_sets[16]: 513
Assign rand_sets[17]: 703  LLC: 2048
rand_sets[17]: 703
Assign rand_sets[18]: 561  LLC: 2048
rand_sets[18]: 561
Assign rand_sets[19]: 990  LLC: 2048
rand_sets[19]: 990
Assign rand_sets[20]: 342  LLC: 2048
rand_sets[20]: 342
Assign rand_sets[21]: 882  LLC: 2048
rand_sets[21]: 882
Assign rand_sets[22]: 15  LLC: 2048
rand_sets[22]: 15
Assign rand_sets[23]: 71  LLC: 2048
rand_sets[23]: 71
Assign rand_sets[24]: 1127  LLC: 2048
rand_sets[24]: 1127
Assign rand_sets[25]: 1382  LLC: 2048
rand_sets[25]: 1382
Assign rand_sets[26]: 647  LLC: 2048
rand_sets[26]: 647
Assign rand_sets[27]: 857  LLC: 2048
rand_sets[27]: 857
Assign rand_sets[28]: 1450  LLC: 2048
rand_sets[28]: 1450
Assign rand_sets[29]: 1160  LLC: 2048
rand_sets[29]: 1160
Assign rand_sets[30]: 1852  LLC: 2048
rand_sets[30]: 1852
Assign rand_sets[31]: 1881  LLC: 2048
rand_sets[31]: 1881
Assign rand_sets[32]: 1770  LLC: 2048
rand_sets[32]: 1770
Assign rand_sets[33]: 1622  LLC: 2048
rand_sets[33]: 1622
Assign rand_sets[34]: 275  LLC: 2048
rand_sets[34]: 275
Assign rand_sets[35]: 635  LLC: 2048
rand_sets[35]: 635
Assign rand_sets[36]: 466  LLC: 2048
rand_sets[36]: 466
Assign rand_sets[37]: 1413  LLC: 2048
rand_sets[37]: 1413
Assign rand_sets[38]: 417  LLC: 2048
rand_sets[38]: 417
Assign rand_sets[39]: 472  LLC: 2048
rand_sets[39]: 472
Assign rand_sets[40]: 1340  LLC: 2048
rand_sets[40]: 1340
Assign rand_sets[41]: 852  LLC: 2048
rand_sets[41]: 852
Assign rand_sets[42]: 1365  LLC: 2048
rand_sets[42]: 1365
Assign rand_sets[43]: 47  LLC: 2048
rand_sets[43]: 47
Assign rand_sets[44]: 823  LLC: 2048
rand_sets[44]: 823
Assign rand_sets[45]: 686  LLC: 2048
rand_sets[45]: 686
Assign rand_sets[46]: 1637  LLC: 2048
rand_sets[46]: 1637
Assign rand_sets[47]: 1115  LLC: 2048
rand_sets[47]: 1115
Assign rand_sets[48]: 986  LLC: 2048
rand_sets[48]: 986
Assign rand_sets[49]: 258  LLC: 2048
rand_sets[49]: 258
Assign rand_sets[50]: 633  LLC: 2048
rand_sets[50]: 633
Assign rand_sets[51]: 920  LLC: 2048
rand_sets[51]: 920
Assign rand_sets[52]: 204  LLC: 2048
rand_sets[52]: 204
Assign rand_sets[53]: 227  LLC: 2048
rand_sets[53]: 227
Assign rand_sets[54]: 1818  LLC: 2048
rand_sets[54]: 1818
Assign rand_sets[55]: 886  LLC: 2048
rand_sets[55]: 886
Assign rand_sets[56]: 1422  LLC: 2048
rand_sets[56]: 1422
Assign rand_sets[57]: 607  LLC: 2048
rand_sets[57]: 607
Assign rand_sets[58]: 217  LLC: 2048
rand_sets[58]: 217
Assign rand_sets[59]: 1945  LLC: 2048
rand_sets[59]: 1945
Assign rand_sets[60]: 143  LLC: 2048
rand_sets[60]: 143
Assign rand_sets[61]: 1311  LLC: 2048
rand_sets[61]: 1311
Assign rand_sets[62]: 319  LLC: 2048
rand_sets[62]: 319
Assign rand_sets[63]: 1846  LLC: 2048
rand_sets[63]: 1846
Heartbeat CPU 0 instructions: 10000001 cycles: 3204014 heartbeat IPC: 3.12109 cumulative IPC: 3.12109 (Simulation time: 0 hr 0 min 28 sec) 
Heartbeat CPU 0 instructions: 20000000 cycles: 6404853 heartbeat IPC: 3.12418 cumulative IPC: 3.12263 (Simulation time: 0 hr 0 min 56 sec) 
Heartbeat CPU 0 instructions: 30000000 cycles: 9603783 heartbeat IPC: 3.12605 cumulative IPC: 3.12377 (Simulation time: 0 hr 1 min 27 sec) 
Heartbeat CPU 0 instructions: 40000002 cycles: 12800371 heartbeat IPC: 3.12834 cumulative IPC: 3.12491 (Simulation time: 0 hr 2 min 0 sec) 
Heartbeat CPU 0 instructions: 50000003 cycles: 15998792 heartbeat IPC: 3.12654 cumulative IPC: 3.12524 (Simulation time: 0 hr 2 min 47 sec) 
Heartbeat CPU 0 instructions: 60000002 cycles: 19195684 heartbeat IPC: 3.12804 cumulative IPC: 3.1257 (Simulation time: 0 hr 3 min 25 sec) 
Heartbeat CPU 0 instructions: 70000000 cycles: 22394864 heartbeat IPC: 3.1258 cumulative IPC: 3.12572 (Simulation time: 0 hr 4 min 13 sec) 
Heartbeat CPU 0 instructions: 80000000 cycles: 25596359 heartbeat IPC: 3.12354 cumulative IPC: 3.12544 (Simulation time: 0 hr 5 min 1 sec) 
Heartbeat CPU 0 instructions: 90000000 cycles: 28795836 heartbeat IPC: 3.12551 cumulative IPC: 3.12545 (Simulation time: 0 hr 5 min 43 sec) 
Heartbeat CPU 0 instructions: 100000001 cycles: 31996783 heartbeat IPC: 3.12408 cumulative IPC: 3.12531 (Simulation time: 0 hr 6 min 29 sec) 

Warmup complete CPU 0 instructions: 100000001 cycles: 31996783 (Simulation time: 0 hr 6 min 29 sec) 

Heartbeat CPU 0 instructions: 110000000 cycles: 39192736 heartbeat IPC: 1.38967 cumulative IPC: 1.38967 (Simulation time: 0 hr 7 min 16 sec) 
Heartbeat CPU 0 instructions: 120000001 cycles: 46336135 heartbeat IPC: 1.39989 cumulative IPC: 1.39476 (Simulation time: 0 hr 8 min 12 sec) 
Heartbeat CPU 0 instructions: 130000003 cycles: 53525141 heartbeat IPC: 1.39101 cumulative IPC: 1.39351 (Simulation time: 0 hr 9 min 12 sec) 
Heartbeat CPU 0 instructions: 140000000 cycles: 60756114 heartbeat IPC: 1.38294 cumulative IPC: 1.39085 (Simulation time: 0 hr 10 min 7 sec) 
Heartbeat CPU 0 instructions: 150000003 cycles: 67937269 heartbeat IPC: 1.39253 cumulative IPC: 1.39119 (Simulation time: 0 hr 11 min 2 sec) 
Heartbeat CPU 0 instructions: 160000001 cycles: 75230900 heartbeat IPC: 1.37106 cumulative IPC: 1.38779 (Simulation time: 0 hr 11 min 57 sec) 
Heartbeat CPU 0 instructions: 170000001 cycles: 82511797 heartbeat IPC: 1.37346 cumulative IPC: 1.38573 (Simulation time: 0 hr 12 min 53 sec) 
Heartbeat CPU 0 instructions: 180000002 cycles: 89712914 heartbeat IPC: 1.38867 cumulative IPC: 1.38609 (Simulation time: 0 hr 13 min 50 sec) 
Heartbeat CPU 0 instructions: 190000002 cycles: 96890815 heartbeat IPC: 1.39316 cumulative IPC: 1.38688 (Simulation time: 0 hr 14 min 47 sec) 
Heartbeat CPU 0 instructions: 200000002 cycles: 104107062 heartbeat IPC: 1.38576 cumulative IPC: 1.38676 (Simulation time: 0 hr 15 min 43 sec) 
Finished CPU 0 instructions: 100000001 cycles: 72110279 cumulative IPC: 1.38676 (Simulation time: 0 hr 15 min 43 sec) 

ChampSim completed all CPUs

Region of Interest Statistics

CPU 0 cumulative IPC: 1.38676 instructions: 100000001 cycles: 72110279
L1D TOTAL     ACCESS:   19364342  HIT:   19362034  MISS:       2308
L1D LOAD      ACCESS:   13121047  HIT:   13120820  MISS:        227
L1D RFO       ACCESS:    6243295  HIT:    6241214  MISS:       2081
L1D PREFETCH  ACCESS:          0  HIT:          0  MISS:          0
L1D WRITEBACK ACCESS:          0  HIT:          0  MISS:          0
L1D PREFETCH  REQUESTED:          0  ISSUED:          0  USEFUL:          0  USELESS:          0
L1D AVERAGE MISS LATENCY: 123.543 cycles
L1I TOTAL     ACCESS:   17766903  HIT:   17766903  MISS:          0
L1I LOAD      ACCESS:   17766903  HIT:   17766903  MISS:          0
L1I RFO       ACCESS:          0  HIT:          0  MISS:          0
L1I PREFETCH  ACCESS:          0  HIT:          0  MISS:          0
L1I WRITEBACK ACCESS:          0  HIT:          0  MISS:          0
L1I PREFETCH  REQUESTED:          0  ISSUED:          0  USEFUL:          0  USELESS:          0
L1I AVERAGE MISS LATENCY: -nan cycles
L2C TOTAL     ACCESS:       4729  HIT:       2461  MISS:       2268
L2C LOAD      ACCESS:        227  HIT:        159  MISS:         68
L2C RFO       ACCESS:       2081  HIT:         22  MISS:       2059
L2C PREFETCH  ACCESS:        331  HIT:        190  MISS:        141
L2C WRITEBACK ACCESS:       2090  HIT:       2090  MISS:          0
L2C PREFETCH  REQUESTED:        331  ISSUED:        331  USEFUL:        139  USELESS:          0
L2C AVERAGE MISS LATENCY: 119.364 cycles
LLC TOTAL     ACCESS:       2268  HIT:          0  MISS:       2268
LLC LOAD      ACCESS:         68  HIT:          0  MISS:         68
LLC RFO       ACCESS:       2059  HIT:          0  MISS:       2059
LLC PREFETCH  ACCESS:        141  HIT:          0  MISS:        141
LLC WRITEBACK ACCESS:          0  HIT:          0  MISS:          0
LLC PREFETCH  REQUESTED:          0  ISSUED:          0  USEFUL:          0  USELESS:          3
LLC AVERAGE MISS LATENCY: 89.1213 cycles
Major fault: 0 Minor fault: 75
CPU 0 L2C PC-based stride prefetcher final stats

DRAM Statistics
 CHANNEL 0
 RQ ROW_BUFFER_HIT:       1899  ROW_BUFFER_MISS:        369
 DBUS_CONGESTED:        116
 WQ ROW_BUFFER_HIT:          0  ROW_BUFFER_MISS:          0  FULL:          0

 AVG_CONGESTED_CYCLE: 5

CPU 0 Branch Prediction Accuracy: 93.5277% MPKI: 7.10121 Average ROB Occupancy at Mispredict: 59.6168

Branch types
NOT_BRANCH: 89028091 89.0281%
BRANCH_DIRECT_JUMP: 203031 0.203031%
BRANCH_INDIRECT: 0 0%
BRANCH_CONDITIONAL: 10720632 10.7206%
BRANCH_DIRECT_CALL: 23982 0.023982%
BRANCH_INDIRECT_CALL: 0 0%
BRANCH_RETURN: 23981 0.023981%
BRANCH_OTHER: 0 0%

