
*** ChampSim Multicore Out-of-Order Simulator ***

Warmup Instructions: 100000000
Simulation Instructions: 100000000
Number of CPUs: 1
LLC sets: 2048
LLC ways: 16
Off-chip DRAM Size: 4096 MB Channels: 1 Width: 64-bit Data Rate: 3200 MT/s

CPU 0 runs /home/sai/ChampSim/traces/625.x264_s-20B.champsimtrace.xz
CPU 0 Bimodal branch predictor
CPU 0 L2C IP-based stride prefetcher
Initialize DRRIP state
Assign rand_sets[0]: 454  LLC: 2048
rand_sets[0]: 454
Assign rand_sets[1]: 1662  LLC: 2048
rand_sets[1]: 1662
Assign rand_sets[2]: 1921  LLC: 2048
rand_sets[2]: 1921
Assign rand_sets[3]: 1131  LLC: 2048
rand_sets[3]: 1131
Assign rand_sets[4]: 331  LLC: 2048
rand_sets[4]: 331
Assign rand_sets[5]: 1531  LLC: 2048
rand_sets[5]: 1531
Assign rand_sets[6]: 482  LLC: 2048
rand_sets[6]: 482
Assign rand_sets[7]: 1275  LLC: 2048
rand_sets[7]: 1275
Assign rand_sets[8]: 1876  LLC: 2048
rand_sets[8]: 1876
Assign rand_sets[9]: 2038  LLC: 2048
rand_sets[9]: 2038
Assign rand_sets[10]: 701  LLC: 2048
rand_sets[10]: 701
Assign rand_sets[11]: 479  LLC: 2048
rand_sets[11]: 479
Assign rand_sets[12]: 892  LLC: 2048
rand_sets[12]: 892
Assign rand_sets[13]: 1820  LLC: 2048
rand_sets[13]: 1820
Assign rand_sets[14]: 1505  LLC: 2048
rand_sets[14]: 1505
Assign rand_sets[15]: 1159  LLC: 2048
rand_sets[15]: 1159
Assign rand_sets[16]: 513  LLC: 2048
rand_sets[16]: 513
Assign rand_sets[17]: 703  LLC: 2048
rand_sets[17]: 703
Assign rand_sets[18]: 561  LLC: 2048
rand_sets[18]: 561
Assign rand_sets[19]: 990  LLC: 2048
rand_sets[19]: 990
Assign rand_sets[20]: 342  LLC: 2048
rand_sets[20]: 342
Assign rand_sets[21]: 882  LLC: 2048
rand_sets[21]: 882
Assign rand_sets[22]: 15  LLC: 2048
rand_sets[22]: 15
Assign rand_sets[23]: 71  LLC: 2048
rand_sets[23]: 71
Assign rand_sets[24]: 1127  LLC: 2048
rand_sets[24]: 1127
Assign rand_sets[25]: 1382  LLC: 2048
rand_sets[25]: 1382
Assign rand_sets[26]: 647  LLC: 2048
rand_sets[26]: 647
Assign rand_sets[27]: 857  LLC: 2048
rand_sets[27]: 857
Assign rand_sets[28]: 1450  LLC: 2048
rand_sets[28]: 1450
Assign rand_sets[29]: 1160  LLC: 2048
rand_sets[29]: 1160
Assign rand_sets[30]: 1852  LLC: 2048
rand_sets[30]: 1852
Assign rand_sets[31]: 1881  LLC: 2048
rand_sets[31]: 1881
Assign rand_sets[32]: 1770  LLC: 2048
rand_sets[32]: 1770
Assign rand_sets[33]: 1622  LLC: 2048
rand_sets[33]: 1622
Assign rand_sets[34]: 275  LLC: 2048
rand_sets[34]: 275
Assign rand_sets[35]: 635  LLC: 2048
rand_sets[35]: 635
Assign rand_sets[36]: 466  LLC: 2048
rand_sets[36]: 466
Assign rand_sets[37]: 1413  LLC: 2048
rand_sets[37]: 1413
Assign rand_sets[38]: 417  LLC: 2048
rand_sets[38]: 417
Assign rand_sets[39]: 472  LLC: 2048
rand_sets[39]: 472
Assign rand_sets[40]: 1340  LLC: 2048
rand_sets[40]: 1340
Assign rand_sets[41]: 852  LLC: 2048
rand_sets[41]: 852
Assign rand_sets[42]: 1365  LLC: 2048
rand_sets[42]: 1365
Assign rand_sets[43]: 47  LLC: 2048
rand_sets[43]: 47
Assign rand_sets[44]: 823  LLC: 2048
rand_sets[44]: 823
Assign rand_sets[45]: 686  LLC: 2048
rand_sets[45]: 686
Assign rand_sets[46]: 1637  LLC: 2048
rand_sets[46]: 1637
Assign rand_sets[47]: 1115  LLC: 2048
rand_sets[47]: 1115
Assign rand_sets[48]: 986  LLC: 2048
rand_sets[48]: 986
Assign rand_sets[49]: 258  LLC: 2048
rand_sets[49]: 258
Assign rand_sets[50]: 633  LLC: 2048
rand_sets[50]: 633
Assign rand_sets[51]: 920  LLC: 2048
rand_sets[51]: 920
Assign rand_sets[52]: 204  LLC: 2048
rand_sets[52]: 204
Assign rand_sets[53]: 227  LLC: 2048
rand_sets[53]: 227
Assign rand_sets[54]: 1818  LLC: 2048
rand_sets[54]: 1818
Assign rand_sets[55]: 886  LLC: 2048
rand_sets[55]: 886
Assign rand_sets[56]: 1422  LLC: 2048
rand_sets[56]: 1422
Assign rand_sets[57]: 607  LLC: 2048
rand_sets[57]: 607
Assign rand_sets[58]: 217  LLC: 2048
rand_sets[58]: 217
Assign rand_sets[59]: 1945  LLC: 2048
rand_sets[59]: 1945
Assign rand_sets[60]: 143  LLC: 2048
rand_sets[60]: 143
Assign rand_sets[61]: 1311  LLC: 2048
rand_sets[61]: 1311
Assign rand_sets[62]: 319  LLC: 2048
rand_sets[62]: 319
Assign rand_sets[63]: 1846  LLC: 2048
rand_sets[63]: 1846
Heartbeat CPU 0 instructions: 10000002 cycles: 3229131 heartbeat IPC: 3.09681 cumulative IPC: 3.09681 (Simulation time: 0 hr 0 min 55 sec) 
Heartbeat CPU 0 instructions: 20000002 cycles: 6565667 heartbeat IPC: 2.99712 cumulative IPC: 3.04615 (Simulation time: 0 hr 1 min 52 sec) 
Heartbeat CPU 0 instructions: 30000001 cycles: 9906916 heartbeat IPC: 2.99289 cumulative IPC: 3.02819 (Simulation time: 0 hr 2 min 43 sec) 
Heartbeat CPU 0 instructions: 40000001 cycles: 13248166 heartbeat IPC: 2.99289 cumulative IPC: 3.01929 (Simulation time: 0 hr 3 min 38 sec) 
Heartbeat CPU 0 instructions: 50000001 cycles: 16586912 heartbeat IPC: 2.99514 cumulative IPC: 3.01443 (Simulation time: 0 hr 4 min 30 sec) 
Heartbeat CPU 0 instructions: 60000000 cycles: 19928183 heartbeat IPC: 2.99287 cumulative IPC: 3.01081 (Simulation time: 0 hr 5 min 20 sec) 
Heartbeat CPU 0 instructions: 70000003 cycles: 23271029 heartbeat IPC: 2.99146 cumulative IPC: 3.00803 (Simulation time: 0 hr 6 min 18 sec) 
Heartbeat CPU 0 instructions: 80000000 cycles: 26615158 heartbeat IPC: 2.99031 cumulative IPC: 3.00581 (Simulation time: 0 hr 7 min 15 sec) 
Heartbeat CPU 0 instructions: 90000001 cycles: 30175173 heartbeat IPC: 2.80898 cumulative IPC: 2.98258 (Simulation time: 0 hr 7 min 59 sec) 
Heartbeat CPU 0 instructions: 100000002 cycles: 33788747 heartbeat IPC: 2.76734 cumulative IPC: 2.95957 (Simulation time: 0 hr 9 min 8 sec) 

Warmup complete CPU 0 instructions: 100000002 cycles: 33788747 (Simulation time: 0 hr 9 min 8 sec) 

Heartbeat CPU 0 instructions: 110000000 cycles: 40986434 heartbeat IPC: 1.38933 cumulative IPC: 1.38933 (Simulation time: 0 hr 9 min 45 sec) 
Heartbeat CPU 0 instructions: 120000002 cycles: 47456741 heartbeat IPC: 1.54552 cumulative IPC: 1.46327 (Simulation time: 0 hr 10 min 24 sec) 
Heartbeat CPU 0 instructions: 130000000 cycles: 53919329 heartbeat IPC: 1.54737 cumulative IPC: 1.49027 (Simulation time: 0 hr 11 min 1 sec) 
Heartbeat CPU 0 instructions: 140000001 cycles: 60370421 heartbeat IPC: 1.55013 cumulative IPC: 1.5048 (Simulation time: 0 hr 11 min 27 sec) 
Heartbeat CPU 0 instructions: 150000003 cycles: 66816673 heartbeat IPC: 1.55129 cumulative IPC: 1.51387 (Simulation time: 0 hr 11 min 53 sec) 
Heartbeat CPU 0 instructions: 160000000 cycles: 73264971 heartbeat IPC: 1.5508 cumulative IPC: 1.5199 (Simulation time: 0 hr 12 min 34 sec) 
Heartbeat CPU 0 instructions: 170000000 cycles: 79714103 heartbeat IPC: 1.5506 cumulative IPC: 1.52421 (Simulation time: 0 hr 13 min 18 sec) 
Heartbeat CPU 0 instructions: 180000000 cycles: 86169406 heartbeat IPC: 1.54911 cumulative IPC: 1.52728 (Simulation time: 0 hr 13 min 57 sec) 
Heartbeat CPU 0 instructions: 190000000 cycles: 92621010 heartbeat IPC: 1.55 cumulative IPC: 1.52977 (Simulation time: 0 hr 14 min 30 sec) 
Heartbeat CPU 0 instructions: 200000000 cycles: 99084812 heartbeat IPC: 1.54708 cumulative IPC: 1.53149 (Simulation time: 0 hr 15 min 10 sec) 
Finished CPU 0 instructions: 100000000 cycles: 65296067 cumulative IPC: 1.53149 (Simulation time: 0 hr 15 min 10 sec) 

ChampSim completed all CPUs

Region of Interest Statistics

CPU 0 cumulative IPC: 1.53149 instructions: 100000000 cycles: 65296067
L1D TOTAL     ACCESS:   15396116  HIT:   15341759  MISS:      54357
L1D LOAD      ACCESS:    8309473  HIT:    8263722  MISS:      45751
L1D RFO       ACCESS:    7086643  HIT:    7078037  MISS:       8606
L1D PREFETCH  ACCESS:          0  HIT:          0  MISS:          0
L1D WRITEBACK ACCESS:          0  HIT:          0  MISS:          0
L1D PREFETCH  REQUESTED:          0  ISSUED:          0  USEFUL:          0  USELESS:          0
L1D AVERAGE MISS LATENCY: 156.908 cycles
L1I TOTAL     ACCESS:   16026397  HIT:   16025991  MISS:        406
L1I LOAD      ACCESS:   16026397  HIT:   16025991  MISS:        406
L1I RFO       ACCESS:          0  HIT:          0  MISS:          0
L1I PREFETCH  ACCESS:          0  HIT:          0  MISS:          0
L1I WRITEBACK ACCESS:          0  HIT:          0  MISS:          0
L1I PREFETCH  REQUESTED:          0  ISSUED:          0  USEFUL:          0  USELESS:          0
L1I AVERAGE MISS LATENCY: 249.988 cycles
L2C TOTAL     ACCESS:      90616  HIT:      36081  MISS:      54535
L2C LOAD      ACCESS:      46157  HIT:      12842  MISS:      33315
L2C RFO       ACCESS:       8606  HIT:         17  MISS:       8589
L2C PREFETCH  ACCESS:      26900  HIT:      14288  MISS:      12612
L2C WRITEBACK ACCESS:       8953  HIT:       8934  MISS:         19
L2C PREFETCH  REQUESTED:      37999  ISSUED:      35748  USEFUL:      12337  USELESS:        121
L2C AVERAGE MISS LATENCY: 168.22 cycles
LLC TOTAL     ACCESS:      66870  HIT:      27862  MISS:      39008
LLC LOAD      ACCESS:      29468  HIT:       8279  MISS:      21189
LLC RFO       ACCESS:       8589  HIT:          1  MISS:       8588
LLC PREFETCH  ACCESS:      16462  HIT:       7591  MISS:       8871
LLC WRITEBACK ACCESS:      12351  HIT:      11991  MISS:        360
LLC PREFETCH  REQUESTED:          0  ISSUED:          0  USEFUL:        323  USELESS:       8738
LLC AVERAGE MISS LATENCY: 196.29 cycles
Major fault: 0 Minor fault: 4558
CPU 0 L2C PC-based stride prefetcher final stats

DRAM Statistics
 CHANNEL 0
 RQ ROW_BUFFER_HIT:      13418  ROW_BUFFER_MISS:      25219
 DBUS_CONGESTED:      18078
 WQ ROW_BUFFER_HIT:       4131  ROW_BUFFER_MISS:      18228  FULL:          0

 AVG_CONGESTED_CYCLE: 6

CPU 0 Branch Prediction Accuracy: 89.1606% MPKI: 3.46502 Average ROB Occupancy at Mispredict: 61.7021

Branch types
NOT_BRANCH: 96802969 96.803%
BRANCH_DIRECT_JUMP: 47694 0.047694%
BRANCH_INDIRECT: 3716 0.003716%
BRANCH_CONDITIONAL: 2523990 2.52399%
BRANCH_DIRECT_CALL: 152189 0.152189%
BRANCH_INDIRECT_CALL: 158457 0.158457%
BRANCH_RETURN: 310639 0.310639%
BRANCH_OTHER: 0 0%

