Initialize SIGNATURE TABLE
ST_SET: 1
ST_WAY: 256
ST_TAG_BIT: 16
ST_TAG_MASK: ffff

Initialize PATTERN TABLE
PT_SET: 512
PT_WAY: 4
SIG_DELTA_BIT: 7
C_SIG_BIT: 4
C_DELTA_BIT: 4

Initialize PREFETCH FILTER
FILTER_SET: 1024

*** ChampSim Multicore Out-of-Order Simulator ***

Warmup Instructions: 100000000
Simulation Instructions: 100000000
Number of CPUs: 1
LLC sets: 2048
LLC ways: 16
Off-chip DRAM Size: 4096 MB Channels: 1 Width: 64-bit Data Rate: 3200 MT/s

CPU 0 runs /home/shubhayu/ChampSim/traces/657.xz_s-56B.champsimtrace.xz
CPU 0 GSHARE branch predictor
CPU 0 L1I next line prefetcher
CPU 0 L1D next line prefetcher
Initialize DRRIP state
Assign rand_sets[0]: 454  LLC: 2048
rand_sets[0]: 454
Assign rand_sets[1]: 1662  LLC: 2048
rand_sets[1]: 1662
Assign rand_sets[2]: 1921  LLC: 2048
rand_sets[2]: 1921
Assign rand_sets[3]: 1131  LLC: 2048
rand_sets[3]: 1131
Assign rand_sets[4]: 331  LLC: 2048
rand_sets[4]: 331
Assign rand_sets[5]: 1531  LLC: 2048
rand_sets[5]: 1531
Assign rand_sets[6]: 482  LLC: 2048
rand_sets[6]: 482
Assign rand_sets[7]: 1275  LLC: 2048
rand_sets[7]: 1275
Assign rand_sets[8]: 1876  LLC: 2048
rand_sets[8]: 1876
Assign rand_sets[9]: 2038  LLC: 2048
rand_sets[9]: 2038
Assign rand_sets[10]: 701  LLC: 2048
rand_sets[10]: 701
Assign rand_sets[11]: 479  LLC: 2048
rand_sets[11]: 479
Assign rand_sets[12]: 892  LLC: 2048
rand_sets[12]: 892
Assign rand_sets[13]: 1820  LLC: 2048
rand_sets[13]: 1820
Assign rand_sets[14]: 1505  LLC: 2048
rand_sets[14]: 1505
Assign rand_sets[15]: 1159  LLC: 2048
rand_sets[15]: 1159
Assign rand_sets[16]: 513  LLC: 2048
rand_sets[16]: 513
Assign rand_sets[17]: 703  LLC: 2048
rand_sets[17]: 703
Assign rand_sets[18]: 561  LLC: 2048
rand_sets[18]: 561
Assign rand_sets[19]: 990  LLC: 2048
rand_sets[19]: 990
Assign rand_sets[20]: 342  LLC: 2048
rand_sets[20]: 342
Assign rand_sets[21]: 882  LLC: 2048
rand_sets[21]: 882
Assign rand_sets[22]: 15  LLC: 2048
rand_sets[22]: 15
Assign rand_sets[23]: 71  LLC: 2048
rand_sets[23]: 71
Assign rand_sets[24]: 1127  LLC: 2048
rand_sets[24]: 1127
Assign rand_sets[25]: 1382  LLC: 2048
rand_sets[25]: 1382
Assign rand_sets[26]: 647  LLC: 2048
rand_sets[26]: 647
Assign rand_sets[27]: 857  LLC: 2048
rand_sets[27]: 857
Assign rand_sets[28]: 1450  LLC: 2048
rand_sets[28]: 1450
Assign rand_sets[29]: 1160  LLC: 2048
rand_sets[29]: 1160
Assign rand_sets[30]: 1852  LLC: 2048
rand_sets[30]: 1852
Assign rand_sets[31]: 1881  LLC: 2048
rand_sets[31]: 1881
Assign rand_sets[32]: 1770  LLC: 2048
rand_sets[32]: 1770
Assign rand_sets[33]: 1622  LLC: 2048
rand_sets[33]: 1622
Assign rand_sets[34]: 275  LLC: 2048
rand_sets[34]: 275
Assign rand_sets[35]: 635  LLC: 2048
rand_sets[35]: 635
Assign rand_sets[36]: 466  LLC: 2048
rand_sets[36]: 466
Assign rand_sets[37]: 1413  LLC: 2048
rand_sets[37]: 1413
Assign rand_sets[38]: 417  LLC: 2048
rand_sets[38]: 417
Assign rand_sets[39]: 472  LLC: 2048
rand_sets[39]: 472
Assign rand_sets[40]: 1340  LLC: 2048
rand_sets[40]: 1340
Assign rand_sets[41]: 852  LLC: 2048
rand_sets[41]: 852
Assign rand_sets[42]: 1365  LLC: 2048
rand_sets[42]: 1365
Assign rand_sets[43]: 47  LLC: 2048
rand_sets[43]: 47
Assign rand_sets[44]: 823  LLC: 2048
rand_sets[44]: 823
Assign rand_sets[45]: 686  LLC: 2048
rand_sets[45]: 686
Assign rand_sets[46]: 1637  LLC: 2048
rand_sets[46]: 1637
Assign rand_sets[47]: 1115  LLC: 2048
rand_sets[47]: 1115
Assign rand_sets[48]: 986  LLC: 2048
rand_sets[48]: 986
Assign rand_sets[49]: 258  LLC: 2048
rand_sets[49]: 258
Assign rand_sets[50]: 633  LLC: 2048
rand_sets[50]: 633
Assign rand_sets[51]: 920  LLC: 2048
rand_sets[51]: 920
Assign rand_sets[52]: 204  LLC: 2048
rand_sets[52]: 204
Assign rand_sets[53]: 227  LLC: 2048
rand_sets[53]: 227
Assign rand_sets[54]: 1818  LLC: 2048
rand_sets[54]: 1818
Assign rand_sets[55]: 886  LLC: 2048
rand_sets[55]: 886
Assign rand_sets[56]: 1422  LLC: 2048
rand_sets[56]: 1422
Assign rand_sets[57]: 607  LLC: 2048
rand_sets[57]: 607
Assign rand_sets[58]: 217  LLC: 2048
rand_sets[58]: 217
Assign rand_sets[59]: 1945  LLC: 2048
rand_sets[59]: 1945
Assign rand_sets[60]: 143  LLC: 2048
rand_sets[60]: 143
Assign rand_sets[61]: 1311  LLC: 2048
rand_sets[61]: 1311
Assign rand_sets[62]: 319  LLC: 2048
rand_sets[62]: 319
Assign rand_sets[63]: 1846  LLC: 2048
rand_sets[63]: 1846
LLC Next Line Prefetcher
Heartbeat CPU 0 instructions: 10000002 cycles: 3066020 heartbeat IPC: 3.26156 cumulative IPC: 3.26156 (Simulation time: 0 hr 0 min 13 sec) 
Heartbeat CPU 0 instructions: 20000003 cycles: 6132012 heartbeat IPC: 3.26159 cumulative IPC: 3.26157 (Simulation time: 0 hr 0 min 26 sec) 
Heartbeat CPU 0 instructions: 30000000 cycles: 9198011 heartbeat IPC: 3.26158 cumulative IPC: 3.26157 (Simulation time: 0 hr 0 min 38 sec) 
Heartbeat CPU 0 instructions: 40000000 cycles: 12264058 heartbeat IPC: 3.26153 cumulative IPC: 3.26156 (Simulation time: 0 hr 0 min 51 sec) 
Heartbeat CPU 0 instructions: 50000000 cycles: 15330106 heartbeat IPC: 3.26153 cumulative IPC: 3.26156 (Simulation time: 0 hr 1 min 3 sec) 
Heartbeat CPU 0 instructions: 60000001 cycles: 18396121 heartbeat IPC: 3.26156 cumulative IPC: 3.26156 (Simulation time: 0 hr 1 min 16 sec) 
Heartbeat CPU 0 instructions: 70000000 cycles: 21462094 heartbeat IPC: 3.26161 cumulative IPC: 3.26156 (Simulation time: 0 hr 1 min 29 sec) 
Heartbeat CPU 0 instructions: 80000002 cycles: 24528148 heartbeat IPC: 3.26152 cumulative IPC: 3.26156 (Simulation time: 0 hr 1 min 42 sec) 
Heartbeat CPU 0 instructions: 90000000 cycles: 27594161 heartbeat IPC: 3.26156 cumulative IPC: 3.26156 (Simulation time: 0 hr 1 min 55 sec) 
Heartbeat CPU 0 instructions: 100000001 cycles: 30660176 heartbeat IPC: 3.26156 cumulative IPC: 3.26156 (Simulation time: 0 hr 2 min 8 sec) 

Warmup complete CPU 0 instructions: 100000001 cycles: 30660176 (Simulation time: 0 hr 2 min 8 sec) 

Heartbeat CPU 0 instructions: 110000000 cycles: 36405090 heartbeat IPC: 1.74067 cumulative IPC: 1.74067 (Simulation time: 0 hr 2 min 18 sec) 
Heartbeat CPU 0 instructions: 120000002 cycles: 42149919 heartbeat IPC: 1.7407 cumulative IPC: 1.74068 (Simulation time: 0 hr 2 min 29 sec) 
Heartbeat CPU 0 instructions: 130000000 cycles: 47894800 heartbeat IPC: 1.74068 cumulative IPC: 1.74068 (Simulation time: 0 hr 2 min 39 sec) 
Heartbeat CPU 0 instructions: 140000002 cycles: 53639458 heartbeat IPC: 1.74075 cumulative IPC: 1.7407 (Simulation time: 0 hr 2 min 49 sec) 
Heartbeat CPU 0 instructions: 150000000 cycles: 59384183 heartbeat IPC: 1.74073 cumulative IPC: 1.7407 (Simulation time: 0 hr 3 min 0 sec) 
Heartbeat CPU 0 instructions: 160000000 cycles: 65128993 heartbeat IPC: 1.7407 cumulative IPC: 1.7407 (Simulation time: 0 hr 3 min 10 sec) 
Heartbeat CPU 0 instructions: 170000001 cycles: 70873757 heartbeat IPC: 1.74072 cumulative IPC: 1.74071 (Simulation time: 0 hr 3 min 21 sec) 
Heartbeat CPU 0 instructions: 180000001 cycles: 76618345 heartbeat IPC: 1.74077 cumulative IPC: 1.74071 (Simulation time: 0 hr 3 min 31 sec) 
Heartbeat CPU 0 instructions: 190000000 cycles: 82363122 heartbeat IPC: 1.74071 cumulative IPC: 1.74071 (Simulation time: 0 hr 3 min 41 sec) 
Heartbeat CPU 0 instructions: 200000002 cycles: 88107608 heartbeat IPC: 1.7408 cumulative IPC: 1.74072 (Simulation time: 0 hr 3 min 52 sec) 
Finished CPU 0 instructions: 100000001 cycles: 57447432 cumulative IPC: 1.74072 (Simulation time: 0 hr 3 min 52 sec) 

ChampSim completed all CPUs

Region of Interest Statistics

CPU 0 cumulative IPC: 1.74072 instructions: 100000001 cycles: 57447432
L1D TOTAL     ACCESS:   16058875  HIT:   16017033  MISS:      41842
L1D LOAD      ACCESS:    7040480  HIT:    7039532  MISS:        948
L1D RFO       ACCESS:    2092049  HIT:    2092049  MISS:          0
L1D PREFETCH  ACCESS:    6926346  HIT:    6885452  MISS:      40894
L1D WRITEBACK ACCESS:          0  HIT:          0  MISS:          0
L1D PREFETCH  REQUESTED:    7041075  ISSUED:    7013561  USEFUL:      40894  USELESS:          0
L1D AVERAGE MISS LATENCY: 25.4976 cycles
L1I TOTAL     ACCESS:   15353725  HIT:   15353725  MISS:          0
L1I LOAD      ACCESS:   15353725  HIT:   15353725  MISS:          0
L1I RFO       ACCESS:          0  HIT:          0  MISS:          0
L1I PREFETCH  ACCESS:          0  HIT:          0  MISS:          0
L1I WRITEBACK ACCESS:          0  HIT:          0  MISS:          0
L1I PREFETCH  REQUESTED:          0  ISSUED:          0  USEFUL:          0  USELESS:          0
L1I AVERAGE MISS LATENCY: -nan cycles
L2C TOTAL     ACCESS:      72056  HIT:      30214  MISS:      41842
L2C LOAD      ACCESS:        654  HIT:          0  MISS:        654
L2C RFO       ACCESS:          0  HIT:          0  MISS:          0
L2C PREFETCH  ACCESS:      71402  HIT:      30214  MISS:      41188
L2C WRITEBACK ACCESS:          0  HIT:          0  MISS:          0
L2C PREFETCH  REQUESTED:     439169  ISSUED:     438979  USEFUL:          0  USELESS:      41188
L2C AVERAGE MISS LATENCY: 33.438 cycles
LLC TOTAL     ACCESS:     466698  HIT:     424845  MISS:      41853
LLC LOAD      ACCESS:        654  HIT:          0  MISS:        654
LLC RFO       ACCESS:          0  HIT:          0  MISS:          0
LLC PREFETCH  ACCESS:     466044  HIT:     424845  MISS:      41199
LLC WRITEBACK ACCESS:          0  HIT:          0  MISS:          0
LLC PREFETCH  REQUESTED:     434802  ISSUED:     427172  USEFUL:          0  USELESS:      41199
LLC AVERAGE MISS LATENCY: 84.5658 cycles
Major fault: 0 Minor fault: 1312
CPU 0 L1I next line prefetcher final stats
CPU 0 L1D next line prefetcher final stats
LLC Next Line Prefetcher Final Stats: none

DRAM Statistics
 CHANNEL 0
 RQ ROW_BUFFER_HIT:      41501  ROW_BUFFER_MISS:        352
 DBUS_CONGESTED:      17701
 WQ ROW_BUFFER_HIT:          0  ROW_BUFFER_MISS:          0  FULL:          0

 AVG_CONGESTED_CYCLE: 6

CPU 0 Branch Prediction Accuracy: 97.9167% MPKI: 0.41841 Average ROB Occupancy at Mispredict: 162.193

Branch types
NOT_BRANCH: 97991303 97.9913%
BRANCH_DIRECT_JUMP: 20921 0.020921%
BRANCH_INDIRECT: 0 0%
BRANCH_CONDITIONAL: 1945599 1.9456%
BRANCH_DIRECT_CALL: 20921 0.020921%
BRANCH_INDIRECT_CALL: 0 0%
BRANCH_RETURN: 20921 0.020921%
BRANCH_OTHER: 0 0%

