Initialize SIGNATURE TABLE
ST_SET: 1
ST_WAY: 256
ST_TAG_BIT: 16
ST_TAG_MASK: ffff

Initialize PATTERN TABLE
PT_SET: 512
PT_WAY: 4
SIG_DELTA_BIT: 7
C_SIG_BIT: 4
C_DELTA_BIT: 4

Initialize PREFETCH FILTER
FILTER_SET: 1024

*** ChampSim Multicore Out-of-Order Simulator ***

Warmup Instructions: 100000000
Simulation Instructions: 100000000
Number of CPUs: 1
LLC sets: 2048
LLC ways: 16
Off-chip DRAM Size: 4096 MB Channels: 1 Width: 64-bit Data Rate: 3200 MT/s

CPU 0 runs /home/shubhayu/ChampSim/traces/603.bwaves_s-1080B.champsimtrace.xz
CPU 0 GSHARE branch predictor
CPU 0 L1I next line prefetcher
CPU 0 L1D next line prefetcher
Initialized the DIP state

LLC Next Line Prefetcher
Heartbeat CPU 0 instructions: 10000001 cycles: 3450269 heartbeat IPC: 2.89832 cumulative IPC: 2.89832 (Simulation time: 0 hr 0 min 15 sec) 
Heartbeat CPU 0 instructions: 20000000 cycles: 6904791 heartbeat IPC: 2.89476 cumulative IPC: 2.89654 (Simulation time: 0 hr 0 min 33 sec) 
Heartbeat CPU 0 instructions: 30000003 cycles: 10291121 heartbeat IPC: 2.95305 cumulative IPC: 2.91513 (Simulation time: 0 hr 0 min 48 sec) 
Heartbeat CPU 0 instructions: 40000000 cycles: 13675370 heartbeat IPC: 2.95486 cumulative IPC: 2.92497 (Simulation time: 0 hr 1 min 3 sec) 
Heartbeat CPU 0 instructions: 50000002 cycles: 17063535 heartbeat IPC: 2.95145 cumulative IPC: 2.93023 (Simulation time: 0 hr 1 min 18 sec) 
Heartbeat CPU 0 instructions: 60000001 cycles: 20484213 heartbeat IPC: 2.9234 cumulative IPC: 2.92909 (Simulation time: 0 hr 1 min 32 sec) 
Heartbeat CPU 0 instructions: 70000000 cycles: 23903235 heartbeat IPC: 2.92481 cumulative IPC: 2.92847 (Simulation time: 0 hr 1 min 45 sec) 
Heartbeat CPU 0 instructions: 80000000 cycles: 27321096 heartbeat IPC: 2.92581 cumulative IPC: 2.92814 (Simulation time: 0 hr 1 min 59 sec) 
Heartbeat CPU 0 instructions: 90000001 cycles: 30739686 heartbeat IPC: 2.92518 cumulative IPC: 2.92781 (Simulation time: 0 hr 2 min 12 sec) 
Heartbeat CPU 0 instructions: 100000003 cycles: 34148933 heartbeat IPC: 2.9332 cumulative IPC: 2.92835 (Simulation time: 0 hr 2 min 25 sec) 

Warmup complete CPU 0 instructions: 100000003 cycles: 34148933 (Simulation time: 0 hr 2 min 25 sec) 

Heartbeat CPU 0 instructions: 110000000 cycles: 41759320 heartbeat IPC: 1.31399 cumulative IPC: 1.31399 (Simulation time: 0 hr 2 min 35 sec) 
Heartbeat CPU 0 instructions: 120000000 cycles: 49375628 heartbeat IPC: 1.31297 cumulative IPC: 1.31348 (Simulation time: 0 hr 3 min 44 sec) 
Heartbeat CPU 0 instructions: 130000001 cycles: 56992196 heartbeat IPC: 1.31293 cumulative IPC: 1.3133 (Simulation time: 0 hr 3 min 54 sec) 
Heartbeat CPU 0 instructions: 140000002 cycles: 64606889 heartbeat IPC: 1.31325 cumulative IPC: 1.31329 (Simulation time: 0 hr 4 min 4 sec) 
Heartbeat CPU 0 instructions: 150000001 cycles: 72214039 heartbeat IPC: 1.31455 cumulative IPC: 1.31354 (Simulation time: 0 hr 4 min 14 sec) 
Heartbeat CPU 0 instructions: 160000002 cycles: 79811450 heartbeat IPC: 1.31624 cumulative IPC: 1.31399 (Simulation time: 0 hr 4 min 24 sec) 
Heartbeat CPU 0 instructions: 170000000 cycles: 87409719 heartbeat IPC: 1.31609 cumulative IPC: 1.31429 (Simulation time: 0 hr 4 min 35 sec) 
Heartbeat CPU 0 instructions: 180000003 cycles: 95008299 heartbeat IPC: 1.31604 cumulative IPC: 1.31451 (Simulation time: 0 hr 4 min 45 sec) 
Heartbeat CPU 0 instructions: 190000003 cycles: 102602242 heartbeat IPC: 1.31684 cumulative IPC: 1.31476 (Simulation time: 0 hr 4 min 55 sec) 
Heartbeat CPU 0 instructions: 200000001 cycles: 110193136 heartbeat IPC: 1.31737 cumulative IPC: 1.31502 (Simulation time: 0 hr 5 min 5 sec) 
Finished CPU 0 instructions: 100000001 cycles: 76044209 cumulative IPC: 1.31502 (Simulation time: 0 hr 5 min 5 sec) 

ChampSim completed all CPUs

Region of Interest Statistics

CPU 0 cumulative IPC: 1.31502 instructions: 100000001 cycles: 76044209
L1D TOTAL     ACCESS:   33527920  HIT:   33520387  MISS:       7533
L1D LOAD      ACCESS:   15442645  HIT:   15442506  MISS:        139
L1D RFO       ACCESS:    3368259  HIT:    3361621  MISS:       6638
L1D PREFETCH  ACCESS:   14717016  HIT:   14716260  MISS:        756
L1D WRITEBACK ACCESS:          0  HIT:          0  MISS:          0
L1D PREFETCH  REQUESTED:   15442882  ISSUED:   14766820  USEFUL:        662  USELESS:        156
L1D AVERAGE MISS LATENCY: 180.283 cycles
L1I TOTAL     ACCESS:   21369076  HIT:   21369076  MISS:          0
L1I LOAD      ACCESS:   21369076  HIT:   21369076  MISS:          0
L1I RFO       ACCESS:          0  HIT:          0  MISS:          0
L1I PREFETCH  ACCESS:          0  HIT:          0  MISS:          0
L1I WRITEBACK ACCESS:          0  HIT:          0  MISS:          0
L1I PREFETCH  REQUESTED:          0  ISSUED:          0  USEFUL:          0  USELESS:          0
L1I AVERAGE MISS LATENCY: -nan cycles
L2C TOTAL     ACCESS:      14687  HIT:       7450  MISS:       7237
L2C LOAD      ACCESS:        131  HIT:        121  MISS:         10
L2C RFO       ACCESS:       6316  HIT:         68  MISS:       6248
L2C PREFETCH  ACCESS:       1596  HIT:        619  MISS:        977
L2C WRITEBACK ACCESS:       6644  HIT:       6642  MISS:          2
L2C PREFETCH  REQUESTED:       4604  ISSUED:       4604  USEFUL:         20  USELESS:       1359
L2C AVERAGE MISS LATENCY: 182.847 cycles
LLC TOTAL     ACCESS:      18625  HIT:       4764  MISS:      13861
LLC LOAD      ACCESS:         10  HIT:          0  MISS:         10
LLC RFO       ACCESS:       6237  HIT:        399  MISS:       5838
LLC PREFETCH  ACCESS:       5781  HIT:       4329  MISS:       1452
LLC WRITEBACK ACCESS:       6597  HIT:         36  MISS:       6561
LLC PREFETCH  REQUESTED:       4924  ISSUED:       4843  USEFUL:        399  USELESS:       1088
LLC AVERAGE MISS LATENCY: 95.2653 cycles
Major fault: 0 Minor fault: 1317
CPU 0 L1I next line prefetcher final stats
CPU 0 L1D next line prefetcher final stats
LLC Next Line Prefetcher Final Stats: none

DRAM Statistics
 CHANNEL 0
 RQ ROW_BUFFER_HIT:       1106  ROW_BUFFER_MISS:       6194
 DBUS_CONGESTED:       5091
 WQ ROW_BUFFER_HIT:       4150  ROW_BUFFER_MISS:       2269  FULL:          0

 AVG_CONGESTED_CYCLE: 6

CPU 0 Branch Prediction Accuracy: 93.5013% MPKI: 9.44773 Average ROB Occupancy at Mispredict: 23.981

Branch types
NOT_BRANCH: 85462309 85.4623%
BRANCH_DIRECT_JUMP: 1074199 1.0742%
BRANCH_INDIRECT: 83005 0.083005%
BRANCH_CONDITIONAL: 13134765 13.1348%
BRANCH_DIRECT_CALL: 122900 0.1229%
BRANCH_INDIRECT_CALL: 0 0%
BRANCH_RETURN: 122901 0.122901%
BRANCH_OTHER: 0 0%

