
*** ChampSim Multicore Out-of-Order Simulator ***

Warmup Instructions: 100000000
Simulation Instructions: 100000000
Number of CPUs: 1
LLC sets: 2048
LLC ways: 16
Off-chip DRAM Size: 4096 MB Channels: 1 Width: 64-bit Data Rate: 3200 MT/s

CPU 0 runs /home/shubhayu/ChampSim/traces/458.sjeng-1088B.champsimtrace.xz
CPU 0 Bimodal branch predictor
Initialize DRRIP state
Assign rand_sets[0]: 454  LLC: 2048
rand_sets[0]: 454
Assign rand_sets[1]: 1662  LLC: 2048
rand_sets[1]: 1662
Assign rand_sets[2]: 1921  LLC: 2048
rand_sets[2]: 1921
Assign rand_sets[3]: 1131  LLC: 2048
rand_sets[3]: 1131
Assign rand_sets[4]: 331  LLC: 2048
rand_sets[4]: 331
Assign rand_sets[5]: 1531  LLC: 2048
rand_sets[5]: 1531
Assign rand_sets[6]: 482  LLC: 2048
rand_sets[6]: 482
Assign rand_sets[7]: 1275  LLC: 2048
rand_sets[7]: 1275
Assign rand_sets[8]: 1876  LLC: 2048
rand_sets[8]: 1876
Assign rand_sets[9]: 2038  LLC: 2048
rand_sets[9]: 2038
Assign rand_sets[10]: 701  LLC: 2048
rand_sets[10]: 701
Assign rand_sets[11]: 479  LLC: 2048
rand_sets[11]: 479
Assign rand_sets[12]: 892  LLC: 2048
rand_sets[12]: 892
Assign rand_sets[13]: 1820  LLC: 2048
rand_sets[13]: 1820
Assign rand_sets[14]: 1505  LLC: 2048
rand_sets[14]: 1505
Assign rand_sets[15]: 1159  LLC: 2048
rand_sets[15]: 1159
Assign rand_sets[16]: 513  LLC: 2048
rand_sets[16]: 513
Assign rand_sets[17]: 703  LLC: 2048
rand_sets[17]: 703
Assign rand_sets[18]: 561  LLC: 2048
rand_sets[18]: 561
Assign rand_sets[19]: 990  LLC: 2048
rand_sets[19]: 990
Assign rand_sets[20]: 342  LLC: 2048
rand_sets[20]: 342
Assign rand_sets[21]: 882  LLC: 2048
rand_sets[21]: 882
Assign rand_sets[22]: 15  LLC: 2048
rand_sets[22]: 15
Assign rand_sets[23]: 71  LLC: 2048
rand_sets[23]: 71
Assign rand_sets[24]: 1127  LLC: 2048
rand_sets[24]: 1127
Assign rand_sets[25]: 1382  LLC: 2048
rand_sets[25]: 1382
Assign rand_sets[26]: 647  LLC: 2048
rand_sets[26]: 647
Assign rand_sets[27]: 857  LLC: 2048
rand_sets[27]: 857
Assign rand_sets[28]: 1450  LLC: 2048
rand_sets[28]: 1450
Assign rand_sets[29]: 1160  LLC: 2048
rand_sets[29]: 1160
Assign rand_sets[30]: 1852  LLC: 2048
rand_sets[30]: 1852
Assign rand_sets[31]: 1881  LLC: 2048
rand_sets[31]: 1881
Assign rand_sets[32]: 1770  LLC: 2048
rand_sets[32]: 1770
Assign rand_sets[33]: 1622  LLC: 2048
rand_sets[33]: 1622
Assign rand_sets[34]: 275  LLC: 2048
rand_sets[34]: 275
Assign rand_sets[35]: 635  LLC: 2048
rand_sets[35]: 635
Assign rand_sets[36]: 466  LLC: 2048
rand_sets[36]: 466
Assign rand_sets[37]: 1413  LLC: 2048
rand_sets[37]: 1413
Assign rand_sets[38]: 417  LLC: 2048
rand_sets[38]: 417
Assign rand_sets[39]: 472  LLC: 2048
rand_sets[39]: 472
Assign rand_sets[40]: 1340  LLC: 2048
rand_sets[40]: 1340
Assign rand_sets[41]: 852  LLC: 2048
rand_sets[41]: 852
Assign rand_sets[42]: 1365  LLC: 2048
rand_sets[42]: 1365
Assign rand_sets[43]: 47  LLC: 2048
rand_sets[43]: 47
Assign rand_sets[44]: 823  LLC: 2048
rand_sets[44]: 823
Assign rand_sets[45]: 686  LLC: 2048
rand_sets[45]: 686
Assign rand_sets[46]: 1637  LLC: 2048
rand_sets[46]: 1637
Assign rand_sets[47]: 1115  LLC: 2048
rand_sets[47]: 1115
Assign rand_sets[48]: 986  LLC: 2048
rand_sets[48]: 986
Assign rand_sets[49]: 258  LLC: 2048
rand_sets[49]: 258
Assign rand_sets[50]: 633  LLC: 2048
rand_sets[50]: 633
Assign rand_sets[51]: 920  LLC: 2048
rand_sets[51]: 920
Assign rand_sets[52]: 204  LLC: 2048
rand_sets[52]: 204
Assign rand_sets[53]: 227  LLC: 2048
rand_sets[53]: 227
Assign rand_sets[54]: 1818  LLC: 2048
rand_sets[54]: 1818
Assign rand_sets[55]: 886  LLC: 2048
rand_sets[55]: 886
Assign rand_sets[56]: 1422  LLC: 2048
rand_sets[56]: 1422
Assign rand_sets[57]: 607  LLC: 2048
rand_sets[57]: 607
Assign rand_sets[58]: 217  LLC: 2048
rand_sets[58]: 217
Assign rand_sets[59]: 1945  LLC: 2048
rand_sets[59]: 1945
Assign rand_sets[60]: 143  LLC: 2048
rand_sets[60]: 143
Assign rand_sets[61]: 1311  LLC: 2048
rand_sets[61]: 1311
Assign rand_sets[62]: 319  LLC: 2048
rand_sets[62]: 319
Assign rand_sets[63]: 1846  LLC: 2048
rand_sets[63]: 1846
Heartbeat CPU 0 instructions: 10000001 cycles: 3745785 heartbeat IPC: 2.66967 cumulative IPC: 2.66967 (Simulation time: 0 hr 0 min 18 sec) 
Heartbeat CPU 0 instructions: 20000001 cycles: 7497723 heartbeat IPC: 2.66529 cumulative IPC: 2.66748 (Simulation time: 0 hr 0 min 38 sec) 
Heartbeat CPU 0 instructions: 30000001 cycles: 11230458 heartbeat IPC: 2.679 cumulative IPC: 2.67131 (Simulation time: 0 hr 0 min 59 sec) 
Heartbeat CPU 0 instructions: 40000002 cycles: 14951610 heartbeat IPC: 2.68734 cumulative IPC: 2.6753 (Simulation time: 0 hr 1 min 20 sec) 
Heartbeat CPU 0 instructions: 50000000 cycles: 18682373 heartbeat IPC: 2.68042 cumulative IPC: 2.67632 (Simulation time: 0 hr 1 min 41 sec) 
Heartbeat CPU 0 instructions: 60000002 cycles: 22414261 heartbeat IPC: 2.67961 cumulative IPC: 2.67687 (Simulation time: 0 hr 2 min 1 sec) 
Heartbeat CPU 0 instructions: 70000002 cycles: 26135466 heartbeat IPC: 2.6873 cumulative IPC: 2.67835 (Simulation time: 0 hr 2 min 22 sec) 
Heartbeat CPU 0 instructions: 80000000 cycles: 29849715 heartbeat IPC: 2.69233 cumulative IPC: 2.68009 (Simulation time: 0 hr 2 min 43 sec) 
Heartbeat CPU 0 instructions: 90000003 cycles: 33588897 heartbeat IPC: 2.67438 cumulative IPC: 2.67946 (Simulation time: 0 hr 3 min 3 sec) 
Heartbeat CPU 0 instructions: 100000003 cycles: 37331238 heartbeat IPC: 2.67212 cumulative IPC: 2.67872 (Simulation time: 0 hr 3 min 23 sec) 

Warmup complete CPU 0 instructions: 100000003 cycles: 37331238 (Simulation time: 0 hr 3 min 23 sec) 

Heartbeat CPU 0 instructions: 110000000 cycles: 49987977 heartbeat IPC: 0.790093 cumulative IPC: 0.790093 (Simulation time: 0 hr 3 min 38 sec) 
Heartbeat CPU 0 instructions: 120000000 cycles: 62896194 heartbeat IPC: 0.7747 cumulative IPC: 0.782321 (Simulation time: 0 hr 3 min 53 sec) 
Heartbeat CPU 0 instructions: 130000003 cycles: 75047595 heartbeat IPC: 0.822951 cumulative IPC: 0.795411 (Simulation time: 0 hr 4 min 7 sec) 
Heartbeat CPU 0 instructions: 140000000 cycles: 87666319 heartbeat IPC: 0.792473 cumulative IPC: 0.794674 (Simulation time: 0 hr 4 min 22 sec) 
Heartbeat CPU 0 instructions: 150000000 cycles: 100251198 heartbeat IPC: 0.794604 cumulative IPC: 0.79466 (Simulation time: 0 hr 4 min 36 sec) 
Heartbeat CPU 0 instructions: 160000001 cycles: 112923080 heartbeat IPC: 0.789149 cumulative IPC: 0.793736 (Simulation time: 0 hr 4 min 50 sec) 
Heartbeat CPU 0 instructions: 170000000 cycles: 125586016 heartbeat IPC: 0.789706 cumulative IPC: 0.793158 (Simulation time: 0 hr 5 min 5 sec) 
Heartbeat CPU 0 instructions: 180000003 cycles: 138208844 heartbeat IPC: 0.792216 cumulative IPC: 0.79304 (Simulation time: 0 hr 5 min 20 sec) 
Heartbeat CPU 0 instructions: 190000000 cycles: 150966037 heartbeat IPC: 0.783871 cumulative IPC: 0.792011 (Simulation time: 0 hr 5 min 33 sec) 
Heartbeat CPU 0 instructions: 200000002 cycles: 163565994 heartbeat IPC: 0.793654 cumulative IPC: 0.792175 (Simulation time: 0 hr 5 min 45 sec) 
Finished CPU 0 instructions: 100000003 cycles: 126234757 cumulative IPC: 0.792175 (Simulation time: 0 hr 5 min 45 sec) 

ChampSim completed all CPUs

Region of Interest Statistics

CPU 0 cumulative IPC: 0.792175 instructions: 100000003 cycles: 126234757
L1D TOTAL     ACCESS:   26890131  HIT:   26833507  MISS:      56624
L1D LOAD      ACCESS:   19311494  HIT:   19264776  MISS:      46718
L1D RFO       ACCESS:    7578637  HIT:    7568731  MISS:       9906
L1D PREFETCH  ACCESS:          0  HIT:          0  MISS:          0
L1D WRITEBACK ACCESS:          0  HIT:          0  MISS:          0
L1D PREFETCH  REQUESTED:          0  ISSUED:          0  USEFUL:          0  USELESS:          0
L1D AVERAGE MISS LATENCY: 130.34 cycles
L1I TOTAL     ACCESS:   18637897  HIT:   18636610  MISS:       1287
L1I LOAD      ACCESS:   18637897  HIT:   18636610  MISS:       1287
L1I RFO       ACCESS:          0  HIT:          0  MISS:          0
L1I PREFETCH  ACCESS:          0  HIT:          0  MISS:          0
L1I WRITEBACK ACCESS:          0  HIT:          0  MISS:          0
L1I PREFETCH  REQUESTED:          0  ISSUED:          0  USEFUL:          0  USELESS:          0
L1I AVERAGE MISS LATENCY: 17.4499 cycles
L2C TOTAL     ACCESS:      98419  HIT:      64197  MISS:      34222
L2C LOAD      ACCESS:      48005  HIT:      15811  MISS:      32194
L2C RFO       ACCESS:       9899  HIT:       7968  MISS:       1931
L2C PREFETCH  ACCESS:          0  HIT:          0  MISS:          0
L2C WRITEBACK ACCESS:      40515  HIT:      40418  MISS:         97
L2C PREFETCH  REQUESTED:          0  ISSUED:          0  USEFUL:          0  USELESS:          0
L2C AVERAGE MISS LATENCY: 190.187 cycles
LLC TOTAL     ACCESS:      65635  HIT:      32799  MISS:      32836
LLC LOAD      ACCESS:      32194  HIT:       1643  MISS:      30551
LLC RFO       ACCESS:       1931  HIT:        253  MISS:       1678
LLC PREFETCH  ACCESS:          0  HIT:          0  MISS:          0
LLC WRITEBACK ACCESS:      31510  HIT:      30903  MISS:        607
LLC PREFETCH  REQUESTED:          0  ISSUED:          0  USEFUL:          0  USELESS:          0
LLC AVERAGE MISS LATENCY: 166.966 cycles
Major fault: 0 Minor fault: 19008

DRAM Statistics
 CHANNEL 0
 RQ ROW_BUFFER_HIT:        378  ROW_BUFFER_MISS:      31851
 DBUS_CONGESTED:         23
 WQ ROW_BUFFER_HIT:        951  ROW_BUFFER_MISS:      26660  FULL:          0

 AVG_CONGESTED_CYCLE: 6

CPU 0 Branch Prediction Accuracy: 87.3178% MPKI: 28.0387 Average ROB Occupancy at Mispredict: 16.2734

Branch types
NOT_BRANCH: 77890950 77.8909%
BRANCH_DIRECT_JUMP: 1388890 1.38889%
BRANCH_INDIRECT: 579611 0.579611%
BRANCH_CONDITIONAL: 18135904 18.1359%
BRANCH_DIRECT_CALL: 710066 0.710066%
BRANCH_INDIRECT_CALL: 292097 0.292097%
BRANCH_RETURN: 1002161 1.00216%
BRANCH_OTHER: 0 0%

