
*** ChampSim Multicore Out-of-Order Simulator ***

Warmup Instructions: 100000000
Simulation Instructions: 100000000
Number of CPUs: 1
LLC sets: 2048
LLC ways: 16
Off-chip DRAM Size: 4096 MB Channels: 1 Width: 64-bit Data Rate: 3200 MT/s

CPU 0 runs /home/shubhayu/ChampSim/traces/638.imagick_s-824B.champsimtrace.xz
CPU 0 Bimodal branch predictor
Initialize DRRIP state
Assign rand_sets[0]: 454  LLC: 2048
rand_sets[0]: 454
Assign rand_sets[1]: 1662  LLC: 2048
rand_sets[1]: 1662
Assign rand_sets[2]: 1921  LLC: 2048
rand_sets[2]: 1921
Assign rand_sets[3]: 1131  LLC: 2048
rand_sets[3]: 1131
Assign rand_sets[4]: 331  LLC: 2048
rand_sets[4]: 331
Assign rand_sets[5]: 1531  LLC: 2048
rand_sets[5]: 1531
Assign rand_sets[6]: 482  LLC: 2048
rand_sets[6]: 482
Assign rand_sets[7]: 1275  LLC: 2048
rand_sets[7]: 1275
Assign rand_sets[8]: 1876  LLC: 2048
rand_sets[8]: 1876
Assign rand_sets[9]: 2038  LLC: 2048
rand_sets[9]: 2038
Assign rand_sets[10]: 701  LLC: 2048
rand_sets[10]: 701
Assign rand_sets[11]: 479  LLC: 2048
rand_sets[11]: 479
Assign rand_sets[12]: 892  LLC: 2048
rand_sets[12]: 892
Assign rand_sets[13]: 1820  LLC: 2048
rand_sets[13]: 1820
Assign rand_sets[14]: 1505  LLC: 2048
rand_sets[14]: 1505
Assign rand_sets[15]: 1159  LLC: 2048
rand_sets[15]: 1159
Assign rand_sets[16]: 513  LLC: 2048
rand_sets[16]: 513
Assign rand_sets[17]: 703  LLC: 2048
rand_sets[17]: 703
Assign rand_sets[18]: 561  LLC: 2048
rand_sets[18]: 561
Assign rand_sets[19]: 990  LLC: 2048
rand_sets[19]: 990
Assign rand_sets[20]: 342  LLC: 2048
rand_sets[20]: 342
Assign rand_sets[21]: 882  LLC: 2048
rand_sets[21]: 882
Assign rand_sets[22]: 15  LLC: 2048
rand_sets[22]: 15
Assign rand_sets[23]: 71  LLC: 2048
rand_sets[23]: 71
Assign rand_sets[24]: 1127  LLC: 2048
rand_sets[24]: 1127
Assign rand_sets[25]: 1382  LLC: 2048
rand_sets[25]: 1382
Assign rand_sets[26]: 647  LLC: 2048
rand_sets[26]: 647
Assign rand_sets[27]: 857  LLC: 2048
rand_sets[27]: 857
Assign rand_sets[28]: 1450  LLC: 2048
rand_sets[28]: 1450
Assign rand_sets[29]: 1160  LLC: 2048
rand_sets[29]: 1160
Assign rand_sets[30]: 1852  LLC: 2048
rand_sets[30]: 1852
Assign rand_sets[31]: 1881  LLC: 2048
rand_sets[31]: 1881
Assign rand_sets[32]: 1770  LLC: 2048
rand_sets[32]: 1770
Assign rand_sets[33]: 1622  LLC: 2048
rand_sets[33]: 1622
Assign rand_sets[34]: 275  LLC: 2048
rand_sets[34]: 275
Assign rand_sets[35]: 635  LLC: 2048
rand_sets[35]: 635
Assign rand_sets[36]: 466  LLC: 2048
rand_sets[36]: 466
Assign rand_sets[37]: 1413  LLC: 2048
rand_sets[37]: 1413
Assign rand_sets[38]: 417  LLC: 2048
rand_sets[38]: 417
Assign rand_sets[39]: 472  LLC: 2048
rand_sets[39]: 472
Assign rand_sets[40]: 1340  LLC: 2048
rand_sets[40]: 1340
Assign rand_sets[41]: 852  LLC: 2048
rand_sets[41]: 852
Assign rand_sets[42]: 1365  LLC: 2048
rand_sets[42]: 1365
Assign rand_sets[43]: 47  LLC: 2048
rand_sets[43]: 47
Assign rand_sets[44]: 823  LLC: 2048
rand_sets[44]: 823
Assign rand_sets[45]: 686  LLC: 2048
rand_sets[45]: 686
Assign rand_sets[46]: 1637  LLC: 2048
rand_sets[46]: 1637
Assign rand_sets[47]: 1115  LLC: 2048
rand_sets[47]: 1115
Assign rand_sets[48]: 986  LLC: 2048
rand_sets[48]: 986
Assign rand_sets[49]: 258  LLC: 2048
rand_sets[49]: 258
Assign rand_sets[50]: 633  LLC: 2048
rand_sets[50]: 633
Assign rand_sets[51]: 920  LLC: 2048
rand_sets[51]: 920
Assign rand_sets[52]: 204  LLC: 2048
rand_sets[52]: 204
Assign rand_sets[53]: 227  LLC: 2048
rand_sets[53]: 227
Assign rand_sets[54]: 1818  LLC: 2048
rand_sets[54]: 1818
Assign rand_sets[55]: 886  LLC: 2048
rand_sets[55]: 886
Assign rand_sets[56]: 1422  LLC: 2048
rand_sets[56]: 1422
Assign rand_sets[57]: 607  LLC: 2048
rand_sets[57]: 607
Assign rand_sets[58]: 217  LLC: 2048
rand_sets[58]: 217
Assign rand_sets[59]: 1945  LLC: 2048
rand_sets[59]: 1945
Assign rand_sets[60]: 143  LLC: 2048
rand_sets[60]: 143
Assign rand_sets[61]: 1311  LLC: 2048
rand_sets[61]: 1311
Assign rand_sets[62]: 319  LLC: 2048
rand_sets[62]: 319
Assign rand_sets[63]: 1846  LLC: 2048
rand_sets[63]: 1846
Heartbeat CPU 0 instructions: 10000000 cycles: 3763864 heartbeat IPC: 2.65684 cumulative IPC: 2.65684 (Simulation time: 0 hr 0 min 17 sec) 
Heartbeat CPU 0 instructions: 20000003 cycles: 7523244 heartbeat IPC: 2.66001 cumulative IPC: 2.65843 (Simulation time: 0 hr 0 min 36 sec) 
Heartbeat CPU 0 instructions: 30000002 cycles: 11284524 heartbeat IPC: 2.65867 cumulative IPC: 2.65851 (Simulation time: 0 hr 0 min 55 sec) 
Heartbeat CPU 0 instructions: 40000002 cycles: 15050680 heartbeat IPC: 2.65523 cumulative IPC: 2.65769 (Simulation time: 0 hr 1 min 14 sec) 
Heartbeat CPU 0 instructions: 50000003 cycles: 18805590 heartbeat IPC: 2.66318 cumulative IPC: 2.65878 (Simulation time: 0 hr 1 min 33 sec) 
Heartbeat CPU 0 instructions: 60000000 cycles: 22572048 heartbeat IPC: 2.65501 cumulative IPC: 2.65815 (Simulation time: 0 hr 1 min 53 sec) 
Heartbeat CPU 0 instructions: 70000000 cycles: 26326542 heartbeat IPC: 2.66347 cumulative IPC: 2.65891 (Simulation time: 0 hr 2 min 18 sec) 
Heartbeat CPU 0 instructions: 80000000 cycles: 30093815 heartbeat IPC: 2.65444 cumulative IPC: 2.65835 (Simulation time: 0 hr 2 min 43 sec) 
Heartbeat CPU 0 instructions: 90000001 cycles: 33850418 heartbeat IPC: 2.66198 cumulative IPC: 2.65876 (Simulation time: 0 hr 3 min 9 sec) 
Heartbeat CPU 0 instructions: 100000000 cycles: 37615928 heartbeat IPC: 2.65568 cumulative IPC: 2.65845 (Simulation time: 0 hr 3 min 37 sec) 

Warmup complete CPU 0 instructions: 100000004 cycles: 37615929 (Simulation time: 0 hr 3 min 37 sec) 

Heartbeat CPU 0 instructions: 110000000 cycles: 45757962 heartbeat IPC: 1.22819 cumulative IPC: 1.22819 (Simulation time: 0 hr 4 min 1 sec) 
Heartbeat CPU 0 instructions: 120000000 cycles: 53947672 heartbeat IPC: 1.22104 cumulative IPC: 1.22461 (Simulation time: 0 hr 4 min 26 sec) 
Heartbeat CPU 0 instructions: 130000000 cycles: 62110251 heartbeat IPC: 1.2251 cumulative IPC: 1.22477 (Simulation time: 0 hr 4 min 48 sec) 
Heartbeat CPU 0 instructions: 140000000 cycles: 70270833 heartbeat IPC: 1.2254 cumulative IPC: 1.22493 (Simulation time: 0 hr 5 min 10 sec) 
Heartbeat CPU 0 instructions: 150000001 cycles: 78490983 heartbeat IPC: 1.21652 cumulative IPC: 1.22324 (Simulation time: 0 hr 5 min 35 sec) 
Heartbeat CPU 0 instructions: 160000000 cycles: 86736155 heartbeat IPC: 1.21283 cumulative IPC: 1.22149 (Simulation time: 0 hr 5 min 59 sec) 
Heartbeat CPU 0 instructions: 170000000 cycles: 95126246 heartbeat IPC: 1.19188 cumulative IPC: 1.21717 (Simulation time: 0 hr 6 min 22 sec) 
Heartbeat CPU 0 instructions: 180000000 cycles: 103455103 heartbeat IPC: 1.20064 cumulative IPC: 1.21508 (Simulation time: 0 hr 6 min 45 sec) 
Heartbeat CPU 0 instructions: 190000001 cycles: 111858150 heartbeat IPC: 1.19004 cumulative IPC: 1.21225 (Simulation time: 0 hr 7 min 5 sec) 
Heartbeat CPU 0 instructions: 200000002 cycles: 120195810 heartbeat IPC: 1.19938 cumulative IPC: 1.21095 (Simulation time: 0 hr 7 min 23 sec) 
Finished CPU 0 instructions: 100000001 cycles: 82579882 cumulative IPC: 1.21095 (Simulation time: 0 hr 7 min 23 sec) 

ChampSim completed all CPUs

Region of Interest Statistics

CPU 0 cumulative IPC: 1.21095 instructions: 100000001 cycles: 82579882
L1D TOTAL     ACCESS:   17457514  HIT:   17436077  MISS:      21437
L1D LOAD      ACCESS:   12454086  HIT:   12432714  MISS:      21372
L1D RFO       ACCESS:    5003428  HIT:    5003363  MISS:         65
L1D PREFETCH  ACCESS:          0  HIT:          0  MISS:          0
L1D WRITEBACK ACCESS:          0  HIT:          0  MISS:          0
L1D PREFETCH  REQUESTED:          0  ISSUED:          0  USEFUL:          0  USELESS:          0
L1D AVERAGE MISS LATENCY: 160.049 cycles
L1I TOTAL     ACCESS:   19959456  HIT:   19959456  MISS:          0
L1I LOAD      ACCESS:   19959456  HIT:   19959456  MISS:          0
L1I RFO       ACCESS:          0  HIT:          0  MISS:          0
L1I PREFETCH  ACCESS:          0  HIT:          0  MISS:          0
L1I WRITEBACK ACCESS:          0  HIT:          0  MISS:          0
L1I PREFETCH  REQUESTED:          0  ISSUED:          0  USEFUL:          0  USELESS:          0
L1I AVERAGE MISS LATENCY: -nan cycles
L2C TOTAL     ACCESS:      42739  HIT:      21558  MISS:      21181
L2C LOAD      ACCESS:      21372  HIT:        191  MISS:      21181
L2C RFO       ACCESS:         65  HIT:         65  MISS:          0
L2C PREFETCH  ACCESS:          0  HIT:          0  MISS:          0
L2C WRITEBACK ACCESS:      21302  HIT:      21302  MISS:          0
L2C PREFETCH  REQUESTED:          0  ISSUED:          0  USEFUL:          0  USELESS:          0
L2C AVERAGE MISS LATENCY: 146.8 cycles
LLC TOTAL     ACCESS:      42362  HIT:      20861  MISS:      21501
LLC LOAD      ACCESS:      21181  HIT:          0  MISS:      21181
LLC RFO       ACCESS:          0  HIT:          0  MISS:          0
LLC PREFETCH  ACCESS:          0  HIT:          0  MISS:          0
LLC WRITEBACK ACCESS:      21181  HIT:      20861  MISS:        320
LLC PREFETCH  REQUESTED:          0  ISSUED:          0  USEFUL:          0  USELESS:          0
LLC AVERAGE MISS LATENCY: 115.062 cycles
Major fault: 0 Minor fault: 689

DRAM Statistics
 CHANNEL 0
 RQ ROW_BUFFER_HIT:      11480  ROW_BUFFER_MISS:       9701
 DBUS_CONGESTED:          0
 WQ ROW_BUFFER_HIT:          0  ROW_BUFFER_MISS:       9581  FULL:          0

 AVG_CONGESTED_CYCLE: -

CPU 0 Branch Prediction Accuracy: 99.8075% MPKI: 0.31058 Average ROB Occupancy at Mispredict: 173.961

Branch types
NOT_BRANCH: 83868459 83.8685%
BRANCH_DIRECT_JUMP: 826739 0.826739%
BRANCH_INDIRECT: 169449 0.169449%
BRANCH_CONDITIONAL: 10385156 10.3852%
BRANCH_DIRECT_CALL: 2375094 2.37509%
BRANCH_INDIRECT_CALL: 0 0%
BRANCH_RETURN: 2375093 2.37509%
BRANCH_OTHER: 0 0%

