Initialize SIGNATURE TABLE
ST_SET: 1
ST_WAY: 256
ST_TAG_BIT: 16
ST_TAG_MASK: ffff

Initialize PATTERN TABLE
PT_SET: 512
PT_WAY: 4
SIG_DELTA_BIT: 7
C_SIG_BIT: 4
C_DELTA_BIT: 4

Initialize PREFETCH FILTER
FILTER_SET: 1024

*** ChampSim Multicore Out-of-Order Simulator ***

Warmup Instructions: 100000000
Simulation Instructions: 100000000
Number of CPUs: 1
LLC sets: 2048
LLC ways: 16
Off-chip DRAM Size: 4096 MB Channels: 1 Width: 64-bit Data Rate: 3200 MT/s

CPU 0 runs /home/shubhayu/ChampSim/traces/638.imagick_s-824B.champsimtrace.xz
CPU 0 GSHARE branch predictor
CPU 0 L1I next line prefetcher
CPU 0 L1D next line prefetcher
Initialize DRRIP state
Assign rand_sets[0]: 454  LLC: 2048
rand_sets[0]: 454
Assign rand_sets[1]: 1662  LLC: 2048
rand_sets[1]: 1662
Assign rand_sets[2]: 1921  LLC: 2048
rand_sets[2]: 1921
Assign rand_sets[3]: 1131  LLC: 2048
rand_sets[3]: 1131
Assign rand_sets[4]: 331  LLC: 2048
rand_sets[4]: 331
Assign rand_sets[5]: 1531  LLC: 2048
rand_sets[5]: 1531
Assign rand_sets[6]: 482  LLC: 2048
rand_sets[6]: 482
Assign rand_sets[7]: 1275  LLC: 2048
rand_sets[7]: 1275
Assign rand_sets[8]: 1876  LLC: 2048
rand_sets[8]: 1876
Assign rand_sets[9]: 2038  LLC: 2048
rand_sets[9]: 2038
Assign rand_sets[10]: 701  LLC: 2048
rand_sets[10]: 701
Assign rand_sets[11]: 479  LLC: 2048
rand_sets[11]: 479
Assign rand_sets[12]: 892  LLC: 2048
rand_sets[12]: 892
Assign rand_sets[13]: 1820  LLC: 2048
rand_sets[13]: 1820
Assign rand_sets[14]: 1505  LLC: 2048
rand_sets[14]: 1505
Assign rand_sets[15]: 1159  LLC: 2048
rand_sets[15]: 1159
Assign rand_sets[16]: 513  LLC: 2048
rand_sets[16]: 513
Assign rand_sets[17]: 703  LLC: 2048
rand_sets[17]: 703
Assign rand_sets[18]: 561  LLC: 2048
rand_sets[18]: 561
Assign rand_sets[19]: 990  LLC: 2048
rand_sets[19]: 990
Assign rand_sets[20]: 342  LLC: 2048
rand_sets[20]: 342
Assign rand_sets[21]: 882  LLC: 2048
rand_sets[21]: 882
Assign rand_sets[22]: 15  LLC: 2048
rand_sets[22]: 15
Assign rand_sets[23]: 71  LLC: 2048
rand_sets[23]: 71
Assign rand_sets[24]: 1127  LLC: 2048
rand_sets[24]: 1127
Assign rand_sets[25]: 1382  LLC: 2048
rand_sets[25]: 1382
Assign rand_sets[26]: 647  LLC: 2048
rand_sets[26]: 647
Assign rand_sets[27]: 857  LLC: 2048
rand_sets[27]: 857
Assign rand_sets[28]: 1450  LLC: 2048
rand_sets[28]: 1450
Assign rand_sets[29]: 1160  LLC: 2048
rand_sets[29]: 1160
Assign rand_sets[30]: 1852  LLC: 2048
rand_sets[30]: 1852
Assign rand_sets[31]: 1881  LLC: 2048
rand_sets[31]: 1881
Assign rand_sets[32]: 1770  LLC: 2048
rand_sets[32]: 1770
Assign rand_sets[33]: 1622  LLC: 2048
rand_sets[33]: 1622
Assign rand_sets[34]: 275  LLC: 2048
rand_sets[34]: 275
Assign rand_sets[35]: 635  LLC: 2048
rand_sets[35]: 635
Assign rand_sets[36]: 466  LLC: 2048
rand_sets[36]: 466
Assign rand_sets[37]: 1413  LLC: 2048
rand_sets[37]: 1413
Assign rand_sets[38]: 417  LLC: 2048
rand_sets[38]: 417
Assign rand_sets[39]: 472  LLC: 2048
rand_sets[39]: 472
Assign rand_sets[40]: 1340  LLC: 2048
rand_sets[40]: 1340
Assign rand_sets[41]: 852  LLC: 2048
rand_sets[41]: 852
Assign rand_sets[42]: 1365  LLC: 2048
rand_sets[42]: 1365
Assign rand_sets[43]: 47  LLC: 2048
rand_sets[43]: 47
Assign rand_sets[44]: 823  LLC: 2048
rand_sets[44]: 823
Assign rand_sets[45]: 686  LLC: 2048
rand_sets[45]: 686
Assign rand_sets[46]: 1637  LLC: 2048
rand_sets[46]: 1637
Assign rand_sets[47]: 1115  LLC: 2048
rand_sets[47]: 1115
Assign rand_sets[48]: 986  LLC: 2048
rand_sets[48]: 986
Assign rand_sets[49]: 258  LLC: 2048
rand_sets[49]: 258
Assign rand_sets[50]: 633  LLC: 2048
rand_sets[50]: 633
Assign rand_sets[51]: 920  LLC: 2048
rand_sets[51]: 920
Assign rand_sets[52]: 204  LLC: 2048
rand_sets[52]: 204
Assign rand_sets[53]: 227  LLC: 2048
rand_sets[53]: 227
Assign rand_sets[54]: 1818  LLC: 2048
rand_sets[54]: 1818
Assign rand_sets[55]: 886  LLC: 2048
rand_sets[55]: 886
Assign rand_sets[56]: 1422  LLC: 2048
rand_sets[56]: 1422
Assign rand_sets[57]: 607  LLC: 2048
rand_sets[57]: 607
Assign rand_sets[58]: 217  LLC: 2048
rand_sets[58]: 217
Assign rand_sets[59]: 1945  LLC: 2048
rand_sets[59]: 1945
Assign rand_sets[60]: 143  LLC: 2048
rand_sets[60]: 143
Assign rand_sets[61]: 1311  LLC: 2048
rand_sets[61]: 1311
Assign rand_sets[62]: 319  LLC: 2048
rand_sets[62]: 319
Assign rand_sets[63]: 1846  LLC: 2048
rand_sets[63]: 1846
LLC Next Line Prefetcher
Heartbeat CPU 0 instructions: 10000000 cycles: 3763818 heartbeat IPC: 2.65688 cumulative IPC: 2.65688 (Simulation time: 0 hr 0 min 26 sec) 
Heartbeat CPU 0 instructions: 20000003 cycles: 7523151 heartbeat IPC: 2.66005 cumulative IPC: 2.65846 (Simulation time: 0 hr 0 min 53 sec) 
Heartbeat CPU 0 instructions: 30000002 cycles: 11284355 heartbeat IPC: 2.65872 cumulative IPC: 2.65855 (Simulation time: 0 hr 1 min 16 sec) 
Heartbeat CPU 0 instructions: 40000002 cycles: 15050442 heartbeat IPC: 2.65528 cumulative IPC: 2.65773 (Simulation time: 0 hr 1 min 43 sec) 
Heartbeat CPU 0 instructions: 50000003 cycles: 18805297 heartbeat IPC: 2.66322 cumulative IPC: 2.65883 (Simulation time: 0 hr 2 min 10 sec) 
Heartbeat CPU 0 instructions: 60000000 cycles: 22571689 heartbeat IPC: 2.65506 cumulative IPC: 2.6582 (Simulation time: 0 hr 2 min 36 sec) 
Heartbeat CPU 0 instructions: 70000000 cycles: 26326109 heartbeat IPC: 2.66353 cumulative IPC: 2.65896 (Simulation time: 0 hr 3 min 3 sec) 
Heartbeat CPU 0 instructions: 80000000 cycles: 30093319 heartbeat IPC: 2.65448 cumulative IPC: 2.6584 (Simulation time: 0 hr 3 min 29 sec) 
Heartbeat CPU 0 instructions: 90000001 cycles: 33849878 heartbeat IPC: 2.66201 cumulative IPC: 2.6588 (Simulation time: 0 hr 3 min 56 sec) 
Heartbeat CPU 0 instructions: 100000000 cycles: 37615350 heartbeat IPC: 2.65571 cumulative IPC: 2.65849 (Simulation time: 0 hr 4 min 21 sec) 

Warmup complete CPU 0 instructions: 100000004 cycles: 37615351 (Simulation time: 0 hr 4 min 21 sec) 

Heartbeat CPU 0 instructions: 110000000 cycles: 45626226 heartbeat IPC: 1.2483 cumulative IPC: 1.2483 (Simulation time: 0 hr 4 min 51 sec) 
Heartbeat CPU 0 instructions: 120000000 cycles: 53677148 heartbeat IPC: 1.24209 cumulative IPC: 1.24519 (Simulation time: 0 hr 5 min 22 sec) 
Heartbeat CPU 0 instructions: 130000000 cycles: 61709278 heartbeat IPC: 1.245 cumulative IPC: 1.24513 (Simulation time: 0 hr 5 min 51 sec) 
Heartbeat CPU 0 instructions: 140000000 cycles: 69737238 heartbeat IPC: 1.24565 cumulative IPC: 1.24526 (Simulation time: 0 hr 6 min 22 sec) 
Heartbeat CPU 0 instructions: 150000001 cycles: 77797126 heartbeat IPC: 1.24071 cumulative IPC: 1.24435 (Simulation time: 0 hr 6 min 53 sec) 
Heartbeat CPU 0 instructions: 160000000 cycles: 85800640 heartbeat IPC: 1.24945 cumulative IPC: 1.24519 (Simulation time: 0 hr 7 min 24 sec) 
Heartbeat CPU 0 instructions: 170000000 cycles: 93865289 heartbeat IPC: 1.23998 cumulative IPC: 1.24445 (Simulation time: 0 hr 7 min 50 sec) 
Heartbeat CPU 0 instructions: 180000000 cycles: 101868410 heartbeat IPC: 1.24951 cumulative IPC: 1.24508 (Simulation time: 0 hr 8 min 11 sec) 
Heartbeat CPU 0 instructions: 190000001 cycles: 109927887 heartbeat IPC: 1.24078 cumulative IPC: 1.2446 (Simulation time: 0 hr 8 min 30 sec) 
Heartbeat CPU 0 instructions: 200000002 cycles: 117935735 heartbeat IPC: 1.24878 cumulative IPC: 1.24501 (Simulation time: 0 hr 8 min 50 sec) 
Finished CPU 0 instructions: 100000001 cycles: 80320385 cumulative IPC: 1.24501 (Simulation time: 0 hr 8 min 50 sec) 

ChampSim completed all CPUs

Region of Interest Statistics

CPU 0 cumulative IPC: 1.24501 instructions: 100000001 cycles: 80320385
L1D TOTAL     ACCESS:   29543535  HIT:   29521970  MISS:      21565
L1D LOAD      ACCESS:   12444003  HIT:   12443512  MISS:        491
L1D RFO       ACCESS:    5003465  HIT:    5003401  MISS:         64
L1D PREFETCH  ACCESS:   12096067  HIT:   12075057  MISS:      21010
L1D WRITEBACK ACCESS:          0  HIT:          0  MISS:          0
L1D PREFETCH  REQUESTED:   12444003  ISSUED:   12096120  USEFUL:      20882  USELESS:        120
L1D AVERAGE MISS LATENCY: 26.9478 cycles
L1I TOTAL     ACCESS:   20015795  HIT:   20015795  MISS:          0
L1I LOAD      ACCESS:   20015795  HIT:   20015795  MISS:          0
L1I RFO       ACCESS:          0  HIT:          0  MISS:          0
L1I PREFETCH  ACCESS:          0  HIT:          0  MISS:          0
L1I WRITEBACK ACCESS:          0  HIT:          0  MISS:          0
L1I PREFETCH  REQUESTED:          0  ISSUED:          0  USEFUL:          0  USELESS:          0
L1I AVERAGE MISS LATENCY: -nan cycles
L2C TOTAL     ACCESS:      58396  HIT:      37215  MISS:      21181
L2C LOAD      ACCESS:        491  HIT:        160  MISS:        331
L2C RFO       ACCESS:         64  HIT:         64  MISS:          0
L2C PREFETCH  ACCESS:      36531  HIT:      15681  MISS:      20850
L2C WRITEBACK ACCESS:      21310  HIT:      21310  MISS:          0
L2C PREFETCH  REQUESTED:     221540  ISSUED:     221532  USEFUL:          0  USELESS:      20850
L2C AVERAGE MISS LATENCY: 35.3072 cycles
LLC TOTAL     ACCESS:     261511  HIT:     240308  MISS:      21203
LLC LOAD      ACCESS:        331  HIT:          0  MISS:        331
LLC RFO       ACCESS:          0  HIT:          0  MISS:          0
LLC PREFETCH  ACCESS:     240000  HIT:     219147  MISS:      20853
LLC WRITEBACK ACCESS:      21180  HIT:      21161  MISS:         19
LLC PREFETCH  REQUESTED:     222499  ISSUED:     218568  USEFUL:          0  USELESS:       9740
LLC AVERAGE MISS LATENCY: 128.752 cycles
Major fault: 0 Minor fault: 689
CPU 0 L1I next line prefetcher final stats
CPU 0 L1D next line prefetcher final stats
LLC Next Line Prefetcher Final Stats: none

DRAM Statistics
 CHANNEL 0
 RQ ROW_BUFFER_HIT:      12381  ROW_BUFFER_MISS:       8803
 DBUS_CONGESTED:       9082
 WQ ROW_BUFFER_HIT:        940  ROW_BUFFER_MISS:       8837  FULL:          0

 AVG_CONGESTED_CYCLE: 6

CPU 0 Branch Prediction Accuracy: 99.8803% MPKI: 0.19303 Average ROB Occupancy at Mispredict: 233.619

Branch types
NOT_BRANCH: 83868459 83.8685%
BRANCH_DIRECT_JUMP: 826739 0.826739%
BRANCH_INDIRECT: 169449 0.169449%
BRANCH_CONDITIONAL: 10385156 10.3852%
BRANCH_DIRECT_CALL: 2375094 2.37509%
BRANCH_INDIRECT_CALL: 0 0%
BRANCH_RETURN: 2375093 2.37509%
BRANCH_OTHER: 0 0%

