Initialize SIGNATURE TABLE
ST_SET: 1
ST_WAY: 256
ST_TAG_BIT: 16
ST_TAG_MASK: ffff

Initialize PATTERN TABLE
PT_SET: 512
PT_WAY: 4
SIG_DELTA_BIT: 7
C_SIG_BIT: 4
C_DELTA_BIT: 4

Initialize PREFETCH FILTER
FILTER_SET: 1024

*** ChampSim Multicore Out-of-Order Simulator ***

Warmup Instructions: 100000000
Simulation Instructions: 100000000
Number of CPUs: 1
LLC sets: 2048
LLC ways: 16
Off-chip DRAM Size: 4096 MB Channels: 1 Width: 64-bit Data Rate: 3200 MT/s

CPU 0 runs /home/shubhayu/ChampSim/traces/638.imagick_s-824B.champsimtrace.xz
CPU 0 GSHARE branch predictor
CPU 0 L1I next line prefetcher
CPU 0 L1D next line prefetcher
Initialize BIP state

LLC Next Line Prefetcher
Heartbeat CPU 0 instructions: 10000000 cycles: 3763818 heartbeat IPC: 2.65688 cumulative IPC: 2.65688 (Simulation time: 0 hr 0 min 16 sec) 
Heartbeat CPU 0 instructions: 20000003 cycles: 7523151 heartbeat IPC: 2.66005 cumulative IPC: 2.65846 (Simulation time: 0 hr 0 min 32 sec) 
Heartbeat CPU 0 instructions: 30000002 cycles: 11284355 heartbeat IPC: 2.65872 cumulative IPC: 2.65855 (Simulation time: 0 hr 0 min 49 sec) 
Heartbeat CPU 0 instructions: 40000002 cycles: 15050442 heartbeat IPC: 2.65528 cumulative IPC: 2.65773 (Simulation time: 0 hr 1 min 5 sec) 
Heartbeat CPU 0 instructions: 50000003 cycles: 18805297 heartbeat IPC: 2.66322 cumulative IPC: 2.65883 (Simulation time: 0 hr 1 min 21 sec) 
Heartbeat CPU 0 instructions: 60000000 cycles: 22571689 heartbeat IPC: 2.65506 cumulative IPC: 2.6582 (Simulation time: 0 hr 1 min 38 sec) 
Heartbeat CPU 0 instructions: 70000000 cycles: 26326109 heartbeat IPC: 2.66353 cumulative IPC: 2.65896 (Simulation time: 0 hr 1 min 54 sec) 
Heartbeat CPU 0 instructions: 80000000 cycles: 30093319 heartbeat IPC: 2.65448 cumulative IPC: 2.6584 (Simulation time: 0 hr 2 min 10 sec) 
Heartbeat CPU 0 instructions: 90000001 cycles: 33849878 heartbeat IPC: 2.66201 cumulative IPC: 2.6588 (Simulation time: 0 hr 2 min 27 sec) 
Heartbeat CPU 0 instructions: 100000000 cycles: 37615350 heartbeat IPC: 2.65571 cumulative IPC: 2.65849 (Simulation time: 0 hr 2 min 43 sec) 

Warmup complete CPU 0 instructions: 100000004 cycles: 37615351 (Simulation time: 0 hr 2 min 43 sec) 

Heartbeat CPU 0 instructions: 110000000 cycles: 45626126 heartbeat IPC: 1.24832 cumulative IPC: 1.24832 (Simulation time: 0 hr 3 min 2 sec) 
Heartbeat CPU 0 instructions: 120000000 cycles: 53677148 heartbeat IPC: 1.24208 cumulative IPC: 1.24519 (Simulation time: 0 hr 4 min 17 sec) 
Heartbeat CPU 0 instructions: 130000000 cycles: 61709278 heartbeat IPC: 1.245 cumulative IPC: 1.24513 (Simulation time: 0 hr 4 min 36 sec) 
Heartbeat CPU 0 instructions: 140000000 cycles: 69737338 heartbeat IPC: 1.24563 cumulative IPC: 1.24525 (Simulation time: 0 hr 4 min 55 sec) 
Heartbeat CPU 0 instructions: 150000001 cycles: 77797326 heartbeat IPC: 1.2407 cumulative IPC: 1.24434 (Simulation time: 0 hr 5 min 13 sec) 
Heartbeat CPU 0 instructions: 160000000 cycles: 85801140 heartbeat IPC: 1.2494 cumulative IPC: 1.24518 (Simulation time: 0 hr 5 min 32 sec) 
Heartbeat CPU 0 instructions: 170000000 cycles: 93864989 heartbeat IPC: 1.2401 cumulative IPC: 1.24445 (Simulation time: 0 hr 5 min 50 sec) 
Heartbeat CPU 0 instructions: 180000000 cycles: 101867510 heartbeat IPC: 1.24961 cumulative IPC: 1.24509 (Simulation time: 0 hr 6 min 9 sec) 
Heartbeat CPU 0 instructions: 190000001 cycles: 109926287 heartbeat IPC: 1.24088 cumulative IPC: 1.24462 (Simulation time: 0 hr 6 min 27 sec) 
Heartbeat CPU 0 instructions: 200000002 cycles: 117933335 heartbeat IPC: 1.2489 cumulative IPC: 1.24505 (Simulation time: 0 hr 6 min 46 sec) 
Finished CPU 0 instructions: 100000001 cycles: 80317985 cumulative IPC: 1.24505 (Simulation time: 0 hr 6 min 46 sec) 

ChampSim completed all CPUs

Region of Interest Statistics

CPU 0 cumulative IPC: 1.24505 instructions: 100000001 cycles: 80317985
L1D TOTAL     ACCESS:   29543534  HIT:   29521969  MISS:      21565
L1D LOAD      ACCESS:   12444003  HIT:   12443512  MISS:        491
L1D RFO       ACCESS:    5003465  HIT:    5003401  MISS:         64
L1D PREFETCH  ACCESS:   12096066  HIT:   12075056  MISS:      21010
L1D WRITEBACK ACCESS:          0  HIT:          0  MISS:          0
L1D PREFETCH  REQUESTED:   12444003  ISSUED:   12096120  USEFUL:      20882  USELESS:        120
L1D AVERAGE MISS LATENCY: 26.7177 cycles
L1I TOTAL     ACCESS:   20015798  HIT:   20015798  MISS:          0
L1I LOAD      ACCESS:   20015798  HIT:   20015798  MISS:          0
L1I RFO       ACCESS:          0  HIT:          0  MISS:          0
L1I PREFETCH  ACCESS:          0  HIT:          0  MISS:          0
L1I WRITEBACK ACCESS:          0  HIT:          0  MISS:          0
L1I PREFETCH  REQUESTED:          0  ISSUED:          0  USEFUL:          0  USELESS:          0
L1I AVERAGE MISS LATENCY: -nan cycles
L2C TOTAL     ACCESS:      58409  HIT:      37228  MISS:      21181
L2C LOAD      ACCESS:        491  HIT:        160  MISS:        331
L2C RFO       ACCESS:         64  HIT:         64  MISS:          0
L2C PREFETCH  ACCESS:      36544  HIT:      15694  MISS:      20850
L2C WRITEBACK ACCESS:      21310  HIT:      21310  MISS:          0
L2C PREFETCH  REQUESTED:     222648  ISSUED:     222639  USEFUL:          0  USELESS:      20850
L2C AVERAGE MISS LATENCY: 34.9777 cycles
LLC TOTAL     ACCESS:     262485  HIT:     240676  MISS:      21809
LLC LOAD      ACCESS:        331  HIT:          0  MISS:        331
LLC RFO       ACCESS:          0  HIT:          0  MISS:          0
LLC PREFETCH  ACCESS:     240974  HIT:     220121  MISS:      20853
LLC WRITEBACK ACCESS:      21180  HIT:      20555  MISS:        625
LLC PREFETCH  REQUESTED:     223571  ISSUED:     219648  USEFUL:          0  USELESS:      10055
LLC AVERAGE MISS LATENCY: 116.024 cycles
Major fault: 0 Minor fault: 689
CPU 0 L1I next line prefetcher final stats
CPU 0 L1D next line prefetcher final stats
LLC Next Line Prefetcher Final Stats: none

DRAM Statistics
 CHANNEL 0
 RQ ROW_BUFFER_HIT:      14056  ROW_BUFFER_MISS:       7128
 DBUS_CONGESTED:       6736
 WQ ROW_BUFFER_HIT:        174  ROW_BUFFER_MISS:       7431  FULL:          0

 AVG_CONGESTED_CYCLE: 6

CPU 0 Branch Prediction Accuracy: 99.8803% MPKI: 0.19303 Average ROB Occupancy at Mispredict: 233.619

Branch types
NOT_BRANCH: 83868459 83.8685%
BRANCH_DIRECT_JUMP: 826739 0.826739%
BRANCH_INDIRECT: 169449 0.169449%
BRANCH_CONDITIONAL: 10385156 10.3852%
BRANCH_DIRECT_CALL: 2375094 2.37509%
BRANCH_INDIRECT_CALL: 0 0%
BRANCH_RETURN: 2375093 2.37509%
BRANCH_OTHER: 0 0%

