Initialize SIGNATURE TABLE
ST_SET: 1
ST_WAY: 256
ST_TAG_BIT: 16
ST_TAG_MASK: ffff

Initialize PATTERN TABLE
PT_SET: 512
PT_WAY: 4
SIG_DELTA_BIT: 7
C_SIG_BIT: 4
C_DELTA_BIT: 4

Initialize PREFETCH FILTER
FILTER_SET: 1024

*** ChampSim Multicore Out-of-Order Simulator ***

Warmup Instructions: 100000000
Simulation Instructions: 100000000
Number of CPUs: 1
LLC sets: 2048
LLC ways: 16
Off-chip DRAM Size: 4096 MB Channels: 1 Width: 64-bit Data Rate: 3200 MT/s

CPU 0 runs /home/shubhayu/ChampSim/traces/403.gcc-48B.champsimtrace.xz
CPU 0 GSHARE branch predictor
CPU 0 L1I next line prefetcher
CPU 0 L1D next line prefetcher
Initialized the DIP state

LLC Next Line Prefetcher
Heartbeat CPU 0 instructions: 10000002 cycles: 4167889 heartbeat IPC: 2.3993 cumulative IPC: 2.3993 (Simulation time: 0 hr 0 min 20 sec) 
Heartbeat CPU 0 instructions: 20000000 cycles: 8337881 heartbeat IPC: 2.39809 cumulative IPC: 2.39869 (Simulation time: 0 hr 0 min 39 sec) 
Heartbeat CPU 0 instructions: 30000001 cycles: 12505757 heartbeat IPC: 2.3993 cumulative IPC: 2.3989 (Simulation time: 0 hr 0 min 58 sec) 
Heartbeat CPU 0 instructions: 40000002 cycles: 16673498 heartbeat IPC: 2.39938 cumulative IPC: 2.39902 (Simulation time: 0 hr 1 min 18 sec) 
Heartbeat CPU 0 instructions: 50000002 cycles: 20846254 heartbeat IPC: 2.3965 cumulative IPC: 2.39851 (Simulation time: 0 hr 1 min 37 sec) 
Heartbeat CPU 0 instructions: 60000001 cycles: 25029654 heartbeat IPC: 2.3904 cumulative IPC: 2.39716 (Simulation time: 0 hr 1 min 57 sec) 
Heartbeat CPU 0 instructions: 70000001 cycles: 29192652 heartbeat IPC: 2.40212 cumulative IPC: 2.39786 (Simulation time: 0 hr 2 min 17 sec) 
Heartbeat CPU 0 instructions: 80000001 cycles: 33355913 heartbeat IPC: 2.40196 cumulative IPC: 2.39838 (Simulation time: 0 hr 2 min 37 sec) 
Heartbeat CPU 0 instructions: 90000002 cycles: 37523665 heartbeat IPC: 2.39938 cumulative IPC: 2.39849 (Simulation time: 0 hr 2 min 57 sec) 
Heartbeat CPU 0 instructions: 100000001 cycles: 41697420 heartbeat IPC: 2.39592 cumulative IPC: 2.39823 (Simulation time: 0 hr 3 min 16 sec) 

Warmup complete CPU 0 instructions: 100000001 cycles: 41697420 (Simulation time: 0 hr 3 min 16 sec) 

Heartbeat CPU 0 instructions: 110000000 cycles: 48898056 heartbeat IPC: 1.38877 cumulative IPC: 1.38877 (Simulation time: 0 hr 3 min 37 sec) 
Heartbeat CPU 0 instructions: 120000000 cycles: 56167910 heartbeat IPC: 1.37554 cumulative IPC: 1.38212 (Simulation time: 0 hr 3 min 59 sec) 
Heartbeat CPU 0 instructions: 130000003 cycles: 63408963 heartbeat IPC: 1.38102 cumulative IPC: 1.38175 (Simulation time: 0 hr 4 min 21 sec) 
Heartbeat CPU 0 instructions: 140000002 cycles: 70658687 heartbeat IPC: 1.37936 cumulative IPC: 1.38116 (Simulation time: 0 hr 4 min 42 sec) 
Heartbeat CPU 0 instructions: 150000000 cycles: 77888502 heartbeat IPC: 1.38316 cumulative IPC: 1.38156 (Simulation time: 0 hr 5 min 4 sec) 
Heartbeat CPU 0 instructions: 160000001 cycles: 85127125 heartbeat IPC: 1.38148 cumulative IPC: 1.38154 (Simulation time: 0 hr 5 min 26 sec) 
Heartbeat CPU 0 instructions: 170000002 cycles: 92354177 heartbeat IPC: 1.38369 cumulative IPC: 1.38185 (Simulation time: 0 hr 5 min 48 sec) 
Heartbeat CPU 0 instructions: 180000000 cycles: 99587985 heartbeat IPC: 1.3824 cumulative IPC: 1.38192 (Simulation time: 0 hr 6 min 10 sec) 
Heartbeat CPU 0 instructions: 190000000 cycles: 106792084 heartbeat IPC: 1.3881 cumulative IPC: 1.3826 (Simulation time: 0 hr 6 min 31 sec) 
Heartbeat CPU 0 instructions: 200000002 cycles: 114041247 heartbeat IPC: 1.37947 cumulative IPC: 1.38229 (Simulation time: 0 hr 6 min 53 sec) 
Finished CPU 0 instructions: 100000001 cycles: 72343827 cumulative IPC: 1.38229 (Simulation time: 0 hr 6 min 53 sec) 

ChampSim completed all CPUs

Region of Interest Statistics

CPU 0 cumulative IPC: 1.38229 instructions: 100000001 cycles: 72343827
L1D TOTAL     ACCESS:   50235654  HIT:   49296516  MISS:     939138
L1D LOAD      ACCESS:   16356865  HIT:   15882833  MISS:     474032
L1D RFO       ACCESS:   17675200  HIT:   17671496  MISS:       3704
L1D PREFETCH  ACCESS:   16203589  HIT:   15742187  MISS:     461402
L1D WRITEBACK ACCESS:          0  HIT:          0  MISS:          0
L1D PREFETCH  REQUESTED:   16395761  ISSUED:   16351087  USEFUL:     179172  USELESS:     282230
L1D AVERAGE MISS LATENCY: 19.8558 cycles
L1I TOTAL     ACCESS:   26357901  HIT:   26357901  MISS:          0
L1I LOAD      ACCESS:   26357901  HIT:   26357901  MISS:          0
L1I RFO       ACCESS:          0  HIT:          0  MISS:          0
L1I PREFETCH  ACCESS:          0  HIT:          0  MISS:          0
L1I WRITEBACK ACCESS:          0  HIT:          0  MISS:          0
L1I PREFETCH  REQUESTED:          0  ISSUED:          0  USEFUL:          0  USELESS:          0
L1I AVERAGE MISS LATENCY: -nan cycles
L2C TOTAL     ACCESS:    1436045  HIT:    1401962  MISS:      34083
L2C LOAD      ACCESS:     445041  HIT:     427773  MISS:      17268
L2C RFO       ACCESS:       3701  HIT:        701  MISS:       3000
L2C PREFETCH  ACCESS:     970488  HIT:     956674  MISS:      13814
L2C WRITEBACK ACCESS:      16815  HIT:      16814  MISS:          1
L2C PREFETCH  REQUESTED:     719822  ISSUED:     719822  USEFUL:       1698  USELESS:      12090
L2C AVERAGE MISS LATENCY: 146.625 cycles
LLC TOTAL     ACCESS:     287865  HIT:     216536  MISS:      71329
LLC LOAD      ACCESS:      17268  HIT:       5108  MISS:      12160
LLC RFO       ACCESS:       3000  HIT:         93  MISS:       2907
LLC PREFETCH  ACCESS:     260096  HIT:     210347  MISS:      49749
LLC WRITEBACK ACCESS:       7501  HIT:        988  MISS:       6513
LLC PREFETCH  REQUESTED:     148454  ISSUED:     147430  USEFUL:       4806  USELESS:      45357
LLC AVERAGE MISS LATENCY: 152.742 cycles
Major fault: 0 Minor fault: 2907
CPU 0 L1I next line prefetcher final stats
CPU 0 L1D next line prefetcher final stats
LLC Next Line Prefetcher Final Stats: none

DRAM Statistics
 CHANNEL 0
 RQ ROW_BUFFER_HIT:      12869  ROW_BUFFER_MISS:      51946
 DBUS_CONGESTED:      14462
 WQ ROW_BUFFER_HIT:        893  ROW_BUFFER_MISS:       5567  FULL:          0

 AVG_CONGESTED_CYCLE: 4

CPU 0 Branch Prediction Accuracy: 99.717% MPKI: 0.63024 Average ROB Occupancy at Mispredict: 82.8447

Branch types
NOT_BRANCH: 77728258 77.7283%
BRANCH_DIRECT_JUMP: 3021554 3.02155%
BRANCH_INDIRECT: 1481028 1.48103%
BRANCH_CONDITIONAL: 14722987 14.723%
BRANCH_DIRECT_CALL: 1514790 1.51479%
BRANCH_INDIRECT_CALL: 8297 0.008297%
BRANCH_RETURN: 1523087 1.52309%
BRANCH_OTHER: 0 0%

