Initialize SIGNATURE TABLE
ST_SET: 1
ST_WAY: 256
ST_TAG_BIT: 16
ST_TAG_MASK: ffff

Initialize PATTERN TABLE
PT_SET: 512
PT_WAY: 4
SIG_DELTA_BIT: 7
C_SIG_BIT: 4
C_DELTA_BIT: 4

Initialize PREFETCH FILTER
FILTER_SET: 1024

*** ChampSim Multicore Out-of-Order Simulator ***

Warmup Instructions: 100000000
Simulation Instructions: 100000000
Number of CPUs: 1
LLC sets: 2048
LLC ways: 16
Off-chip DRAM Size: 4096 MB Channels: 1 Width: 64-bit Data Rate: 3200 MT/s

CPU 0 runs /home/shubhayu/ChampSim/traces/403.gcc-48B.champsimtrace.xz
CPU 0 GSHARE branch predictor
CPU 0 L1I next line prefetcher
CPU 0 L1D next line prefetcher
Initialize BIP state

LLC Next Line Prefetcher
Heartbeat CPU 0 instructions: 10000002 cycles: 4167889 heartbeat IPC: 2.3993 cumulative IPC: 2.3993 (Simulation time: 0 hr 0 min 20 sec) 
Heartbeat CPU 0 instructions: 20000000 cycles: 8337884 heartbeat IPC: 2.39808 cumulative IPC: 2.39869 (Simulation time: 0 hr 0 min 41 sec) 
Heartbeat CPU 0 instructions: 30000001 cycles: 12505753 heartbeat IPC: 2.39931 cumulative IPC: 2.3989 (Simulation time: 0 hr 1 min 3 sec) 
Heartbeat CPU 0 instructions: 40000002 cycles: 16673501 heartbeat IPC: 2.39938 cumulative IPC: 2.39902 (Simulation time: 0 hr 1 min 26 sec) 
Heartbeat CPU 0 instructions: 50000002 cycles: 20846264 heartbeat IPC: 2.39649 cumulative IPC: 2.39851 (Simulation time: 0 hr 1 min 49 sec) 
Heartbeat CPU 0 instructions: 60000001 cycles: 25029664 heartbeat IPC: 2.3904 cumulative IPC: 2.39716 (Simulation time: 0 hr 2 min 12 sec) 
Heartbeat CPU 0 instructions: 70000001 cycles: 29192657 heartbeat IPC: 2.40212 cumulative IPC: 2.39786 (Simulation time: 0 hr 2 min 35 sec) 
Heartbeat CPU 0 instructions: 80000001 cycles: 33355891 heartbeat IPC: 2.40198 cumulative IPC: 2.39838 (Simulation time: 0 hr 2 min 54 sec) 
Heartbeat CPU 0 instructions: 90000002 cycles: 37523632 heartbeat IPC: 2.39938 cumulative IPC: 2.39849 (Simulation time: 0 hr 3 min 14 sec) 
Heartbeat CPU 0 instructions: 100000001 cycles: 41697376 heartbeat IPC: 2.39593 cumulative IPC: 2.39823 (Simulation time: 0 hr 3 min 33 sec) 

Warmup complete CPU 0 instructions: 100000001 cycles: 41697376 (Simulation time: 0 hr 3 min 33 sec) 

Heartbeat CPU 0 instructions: 110000000 cycles: 48884034 heartbeat IPC: 1.39147 cumulative IPC: 1.39147 (Simulation time: 0 hr 3 min 58 sec) 
Heartbeat CPU 0 instructions: 120000000 cycles: 56140211 heartbeat IPC: 1.37814 cumulative IPC: 1.38477 (Simulation time: 0 hr 4 min 57 sec) 
Heartbeat CPU 0 instructions: 130000003 cycles: 63374395 heartbeat IPC: 1.38233 cumulative IPC: 1.38395 (Simulation time: 0 hr 5 min 19 sec) 
Heartbeat CPU 0 instructions: 140000002 cycles: 70615318 heartbeat IPC: 1.38104 cumulative IPC: 1.38322 (Simulation time: 0 hr 5 min 41 sec) 
Heartbeat CPU 0 instructions: 150000000 cycles: 77834946 heartbeat IPC: 1.38511 cumulative IPC: 1.3836 (Simulation time: 0 hr 6 min 3 sec) 
Heartbeat CPU 0 instructions: 160000001 cycles: 85063112 heartbeat IPC: 1.38348 cumulative IPC: 1.38358 (Simulation time: 0 hr 7 min 26 sec) 
Heartbeat CPU 0 instructions: 170000002 cycles: 92280207 heartbeat IPC: 1.3856 cumulative IPC: 1.38387 (Simulation time: 0 hr 7 min 48 sec) 
Heartbeat CPU 0 instructions: 180000000 cycles: 99498077 heartbeat IPC: 1.38545 cumulative IPC: 1.38407 (Simulation time: 0 hr 8 min 9 sec) 
Heartbeat CPU 0 instructions: 190000000 cycles: 106700534 heartbeat IPC: 1.38842 cumulative IPC: 1.38455 (Simulation time: 0 hr 8 min 31 sec) 
Heartbeat CPU 0 instructions: 200000002 cycles: 113935873 heartbeat IPC: 1.38211 cumulative IPC: 1.3843 (Simulation time: 0 hr 8 min 52 sec) 
Finished CPU 0 instructions: 100000001 cycles: 72238497 cumulative IPC: 1.3843 (Simulation time: 0 hr 8 min 52 sec) 

ChampSim completed all CPUs

Region of Interest Statistics

CPU 0 cumulative IPC: 1.3843 instructions: 100000001 cycles: 72238497
L1D TOTAL     ACCESS:   50235744  HIT:   49296600  MISS:     939144
L1D LOAD      ACCESS:   16356888  HIT:   15882851  MISS:     474037
L1D RFO       ACCESS:   17675197  HIT:   17671494  MISS:       3703
L1D PREFETCH  ACCESS:   16203659  HIT:   15742255  MISS:     461404
L1D WRITEBACK ACCESS:          0  HIT:          0  MISS:          0
L1D PREFETCH  REQUESTED:   16395802  ISSUED:   16351128  USEFUL:     179173  USELESS:     282231
L1D AVERAGE MISS LATENCY: 19.6728 cycles
L1I TOTAL     ACCESS:   26357242  HIT:   26357242  MISS:          0
L1I LOAD      ACCESS:   26357242  HIT:   26357242  MISS:          0
L1I RFO       ACCESS:          0  HIT:          0  MISS:          0
L1I PREFETCH  ACCESS:          0  HIT:          0  MISS:          0
L1I WRITEBACK ACCESS:          0  HIT:          0  MISS:          0
L1I PREFETCH  REQUESTED:          0  ISSUED:          0  USEFUL:          0  USELESS:          0
L1I AVERAGE MISS LATENCY: -nan cycles
L2C TOTAL     ACCESS:    1430326  HIT:    1396267  MISS:      34059
L2C LOAD      ACCESS:     445045  HIT:     427788  MISS:      17257
L2C RFO       ACCESS:       3701  HIT:        701  MISS:       3000
L2C PREFETCH  ACCESS:     964763  HIT:     950963  MISS:      13800
L2C WRITEBACK ACCESS:      16817  HIT:      16815  MISS:          2
L2C PREFETCH  REQUESTED:     714775  ISSUED:     714775  USEFUL:       1701  USELESS:      12023
L2C AVERAGE MISS LATENCY: 141.644 cycles
LLC TOTAL     ACCESS:     292301  HIT:     239163  MISS:      53138
LLC LOAD      ACCESS:      17257  HIT:       5467  MISS:      11790
LLC RFO       ACCESS:       3000  HIT:        108  MISS:       2892
LLC PREFETCH  ACCESS:     264513  HIT:     231093  MISS:      33420
LLC WRITEBACK ACCESS:       7531  HIT:       2495  MISS:       5036
LLC PREFETCH  REQUESTED:     150590  ISSUED:     149564  USEFUL:       5288  USELESS:      30758
LLC AVERAGE MISS LATENCY: 152.065 cycles
Major fault: 0 Minor fault: 2907
CPU 0 L1I next line prefetcher final stats
CPU 0 L1D next line prefetcher final stats
LLC Next Line Prefetcher Final Stats: none

DRAM Statistics
 CHANNEL 0
 RQ ROW_BUFFER_HIT:      11282  ROW_BUFFER_MISS:      36819
 DBUS_CONGESTED:      14642
 WQ ROW_BUFFER_HIT:       1193  ROW_BUFFER_MISS:       5806  FULL:          0

 AVG_CONGESTED_CYCLE: 4

CPU 0 Branch Prediction Accuracy: 99.717% MPKI: 0.63024 Average ROB Occupancy at Mispredict: 82.7055

Branch types
NOT_BRANCH: 77728258 77.7283%
BRANCH_DIRECT_JUMP: 3021554 3.02155%
BRANCH_INDIRECT: 1481028 1.48103%
BRANCH_CONDITIONAL: 14722987 14.723%
BRANCH_DIRECT_CALL: 1514790 1.51479%
BRANCH_INDIRECT_CALL: 8297 0.008297%
BRANCH_RETURN: 1523087 1.52309%
BRANCH_OTHER: 0 0%

