Initialize SIGNATURE TABLE
ST_SET: 1
ST_WAY: 256
ST_TAG_BIT: 16
ST_TAG_MASK: ffff

Initialize PATTERN TABLE
PT_SET: 512
PT_WAY: 4
SIG_DELTA_BIT: 7
C_SIG_BIT: 4
C_DELTA_BIT: 4

Initialize PREFETCH FILTER
FILTER_SET: 1024

*** ChampSim Multicore Out-of-Order Simulator ***

Warmup Instructions: 100000000
Simulation Instructions: 100000000
Number of CPUs: 1
LLC sets: 2048
LLC ways: 16
Off-chip DRAM Size: 4096 MB Channels: 1 Width: 64-bit Data Rate: 3200 MT/s

CPU 0 runs /home/shubhayu/ChampSim/traces/403.gcc-48B.champsimtrace.xz
CPU 0 GSHARE branch predictor
CPU 0 L1I next line prefetcher
CPU 0 L1D next line prefetcher
LLC Next Line Prefetcher
Heartbeat CPU 0 instructions: 10000002 cycles: 4167889 heartbeat IPC: 2.3993 cumulative IPC: 2.3993 (Simulation time: 0 hr 1 min 48 sec) 
Heartbeat CPU 0 instructions: 20000000 cycles: 8337879 heartbeat IPC: 2.39809 cumulative IPC: 2.39869 (Simulation time: 0 hr 2 min 7 sec) 
Heartbeat CPU 0 instructions: 30000001 cycles: 12505753 heartbeat IPC: 2.39931 cumulative IPC: 2.3989 (Simulation time: 0 hr 2 min 29 sec) 
Heartbeat CPU 0 instructions: 40000002 cycles: 16673488 heartbeat IPC: 2.39938 cumulative IPC: 2.39902 (Simulation time: 0 hr 2 min 51 sec) 
Heartbeat CPU 0 instructions: 50000002 cycles: 20846242 heartbeat IPC: 2.3965 cumulative IPC: 2.39851 (Simulation time: 0 hr 3 min 13 sec) 
Heartbeat CPU 0 instructions: 60000001 cycles: 25029642 heartbeat IPC: 2.3904 cumulative IPC: 2.39716 (Simulation time: 0 hr 3 min 35 sec) 
Heartbeat CPU 0 instructions: 70000001 cycles: 29192632 heartbeat IPC: 2.40212 cumulative IPC: 2.39787 (Simulation time: 0 hr 3 min 57 sec) 
Heartbeat CPU 0 instructions: 80000001 cycles: 33355861 heartbeat IPC: 2.40198 cumulative IPC: 2.39838 (Simulation time: 0 hr 4 min 16 sec) 
Heartbeat CPU 0 instructions: 90000002 cycles: 37523584 heartbeat IPC: 2.39939 cumulative IPC: 2.39849 (Simulation time: 0 hr 4 min 35 sec) 
Heartbeat CPU 0 instructions: 100000001 cycles: 41697314 heartbeat IPC: 2.39594 cumulative IPC: 2.39824 (Simulation time: 0 hr 6 min 53 sec) 

Warmup complete CPU 0 instructions: 100000001 cycles: 41697314 (Simulation time: 0 hr 6 min 53 sec) 

Heartbeat CPU 0 instructions: 110000000 cycles: 48882302 heartbeat IPC: 1.39179 cumulative IPC: 1.39179 (Simulation time: 0 hr 7 min 16 sec) 
Heartbeat CPU 0 instructions: 120000000 cycles: 56131205 heartbeat IPC: 1.37952 cumulative IPC: 1.38563 (Simulation time: 0 hr 7 min 41 sec) 
Heartbeat CPU 0 instructions: 130000003 cycles: 63356164 heartbeat IPC: 1.38409 cumulative IPC: 1.38512 (Simulation time: 0 hr 8 min 6 sec) 
Heartbeat CPU 0 instructions: 140000002 cycles: 70589838 heartbeat IPC: 1.38242 cumulative IPC: 1.38444 (Simulation time: 0 hr 8 min 30 sec) 
Heartbeat CPU 0 instructions: 150000000 cycles: 77803452 heartbeat IPC: 1.38627 cumulative IPC: 1.38481 (Simulation time: 0 hr 8 min 55 sec) 
Heartbeat CPU 0 instructions: 160000001 cycles: 85020550 heartbeat IPC: 1.3856 cumulative IPC: 1.38494 (Simulation time: 0 hr 10 min 17 sec) 
Heartbeat CPU 0 instructions: 170000002 cycles: 92232894 heartbeat IPC: 1.38651 cumulative IPC: 1.38516 (Simulation time: 0 hr 10 min 42 sec) 
Heartbeat CPU 0 instructions: 180000000 cycles: 99448674 heartbeat IPC: 1.38585 cumulative IPC: 1.38525 (Simulation time: 0 hr 12 min 55 sec) 
Heartbeat CPU 0 instructions: 190000000 cycles: 106642065 heartbeat IPC: 1.39016 cumulative IPC: 1.38579 (Simulation time: 0 hr 13 min 16 sec) 
Heartbeat CPU 0 instructions: 200000002 cycles: 113861821 heartbeat IPC: 1.38509 cumulative IPC: 1.38572 (Simulation time: 0 hr 13 min 37 sec) 
Finished CPU 0 instructions: 100000001 cycles: 72164507 cumulative IPC: 1.38572 (Simulation time: 0 hr 13 min 37 sec) 

ChampSim completed all CPUs

Region of Interest Statistics

CPU 0 cumulative IPC: 1.38572 instructions: 100000001 cycles: 72164507
L1D TOTAL     ACCESS:   50235816  HIT:   49296667  MISS:     939149
L1D LOAD      ACCESS:   16356888  HIT:   15882852  MISS:     474036
L1D RFO       ACCESS:   17675203  HIT:   17671499  MISS:       3704
L1D PREFETCH  ACCESS:   16203725  HIT:   15742316  MISS:     461409
L1D WRITEBACK ACCESS:          0  HIT:          0  MISS:          0
L1D PREFETCH  REQUESTED:   16395816  ISSUED:   16351142  USEFUL:     179178  USELESS:     282231
L1D AVERAGE MISS LATENCY: 19.5194 cycles
L1I TOTAL     ACCESS:   26357266  HIT:   26357266  MISS:          0
L1I LOAD      ACCESS:   26357266  HIT:   26357266  MISS:          0
L1I RFO       ACCESS:          0  HIT:          0  MISS:          0
L1I PREFETCH  ACCESS:          0  HIT:          0  MISS:          0
L1I WRITEBACK ACCESS:          0  HIT:          0  MISS:          0
L1I PREFETCH  REQUESTED:          0  ISSUED:          0  USEFUL:          0  USELESS:          0
L1I AVERAGE MISS LATENCY: -nan cycles
L2C TOTAL     ACCESS:    1432387  HIT:    1398317  MISS:      34070
L2C LOAD      ACCESS:     445051  HIT:     427780  MISS:      17271
L2C RFO       ACCESS:       3701  HIT:        701  MISS:       3000
L2C PREFETCH  ACCESS:     966812  HIT:     953015  MISS:      13797
L2C WRITEBACK ACCESS:      16823  HIT:      16821  MISS:          2
L2C PREFETCH  REQUESTED:     717555  ISSUED:     717555  USEFUL:       1699  USELESS:      12016
L2C AVERAGE MISS LATENCY: 137.291 cycles
LLC TOTAL     ACCESS:     293163  HIT:     247503  MISS:      45660
LLC LOAD      ACCESS:      17271  HIT:       5964  MISS:      11307
LLC RFO       ACCESS:       3000  HIT:        125  MISS:       2875
LLC PREFETCH  ACCESS:     265223  HIT:     233749  MISS:      31474
LLC WRITEBACK ACCESS:       7669  HIT:       7665  MISS:          4
LLC PREFETCH  REQUESTED:     150929  ISSUED:     149883  USEFUL:       5870  USELESS:      24576
LLC AVERAGE MISS LATENCY: 167.476 cycles
Major fault: 0 Minor fault: 2907
CPU 0 L1I next line prefetcher final stats
CPU 0 L1D next line prefetcher final stats
LLC Next Line Prefetcher Final Stats: none

DRAM Statistics
 CHANNEL 0
 RQ ROW_BUFFER_HIT:      10784  ROW_BUFFER_MISS:      34871
 DBUS_CONGESTED:      14408
 WQ ROW_BUFFER_HIT:       1325  ROW_BUFFER_MISS:       6407  FULL:          0

 AVG_CONGESTED_CYCLE: 4

CPU 0 Branch Prediction Accuracy: 99.717% MPKI: 0.63024 Average ROB Occupancy at Mispredict: 82.5926

Branch types
NOT_BRANCH: 77728258 77.7283%
BRANCH_DIRECT_JUMP: 3021554 3.02155%
BRANCH_INDIRECT: 1481028 1.48103%
BRANCH_CONDITIONAL: 14722987 14.723%
BRANCH_DIRECT_CALL: 1514790 1.51479%
BRANCH_INDIRECT_CALL: 8297 0.008297%
BRANCH_RETURN: 1523087 1.52309%
BRANCH_OTHER: 0 0%

