
*** ChampSim Multicore Out-of-Order Simulator ***

Warmup Instructions: 100000000
Simulation Instructions: 100000000
Number of CPUs: 1
LLC sets: 2048
LLC ways: 16
Off-chip DRAM Size: 4096 MB Channels: 1 Width: 64-bit Data Rate: 3200 MT/s

CPU 0 runs /home/shubhayu/ChampSim/traces/410.bwaves-945B.champsimtrace.xz
CPU 0 Bimodal branch predictor
Initialize DRRIP state
Assign rand_sets[0]: 454  LLC: 2048
rand_sets[0]: 454
Assign rand_sets[1]: 1662  LLC: 2048
rand_sets[1]: 1662
Assign rand_sets[2]: 1921  LLC: 2048
rand_sets[2]: 1921
Assign rand_sets[3]: 1131  LLC: 2048
rand_sets[3]: 1131
Assign rand_sets[4]: 331  LLC: 2048
rand_sets[4]: 331
Assign rand_sets[5]: 1531  LLC: 2048
rand_sets[5]: 1531
Assign rand_sets[6]: 482  LLC: 2048
rand_sets[6]: 482
Assign rand_sets[7]: 1275  LLC: 2048
rand_sets[7]: 1275
Assign rand_sets[8]: 1876  LLC: 2048
rand_sets[8]: 1876
Assign rand_sets[9]: 2038  LLC: 2048
rand_sets[9]: 2038
Assign rand_sets[10]: 701  LLC: 2048
rand_sets[10]: 701
Assign rand_sets[11]: 479  LLC: 2048
rand_sets[11]: 479
Assign rand_sets[12]: 892  LLC: 2048
rand_sets[12]: 892
Assign rand_sets[13]: 1820  LLC: 2048
rand_sets[13]: 1820
Assign rand_sets[14]: 1505  LLC: 2048
rand_sets[14]: 1505
Assign rand_sets[15]: 1159  LLC: 2048
rand_sets[15]: 1159
Assign rand_sets[16]: 513  LLC: 2048
rand_sets[16]: 513
Assign rand_sets[17]: 703  LLC: 2048
rand_sets[17]: 703
Assign rand_sets[18]: 561  LLC: 2048
rand_sets[18]: 561
Assign rand_sets[19]: 990  LLC: 2048
rand_sets[19]: 990
Assign rand_sets[20]: 342  LLC: 2048
rand_sets[20]: 342
Assign rand_sets[21]: 882  LLC: 2048
rand_sets[21]: 882
Assign rand_sets[22]: 15  LLC: 2048
rand_sets[22]: 15
Assign rand_sets[23]: 71  LLC: 2048
rand_sets[23]: 71
Assign rand_sets[24]: 1127  LLC: 2048
rand_sets[24]: 1127
Assign rand_sets[25]: 1382  LLC: 2048
rand_sets[25]: 1382
Assign rand_sets[26]: 647  LLC: 2048
rand_sets[26]: 647
Assign rand_sets[27]: 857  LLC: 2048
rand_sets[27]: 857
Assign rand_sets[28]: 1450  LLC: 2048
rand_sets[28]: 1450
Assign rand_sets[29]: 1160  LLC: 2048
rand_sets[29]: 1160
Assign rand_sets[30]: 1852  LLC: 2048
rand_sets[30]: 1852
Assign rand_sets[31]: 1881  LLC: 2048
rand_sets[31]: 1881
Assign rand_sets[32]: 1770  LLC: 2048
rand_sets[32]: 1770
Assign rand_sets[33]: 1622  LLC: 2048
rand_sets[33]: 1622
Assign rand_sets[34]: 275  LLC: 2048
rand_sets[34]: 275
Assign rand_sets[35]: 635  LLC: 2048
rand_sets[35]: 635
Assign rand_sets[36]: 466  LLC: 2048
rand_sets[36]: 466
Assign rand_sets[37]: 1413  LLC: 2048
rand_sets[37]: 1413
Assign rand_sets[38]: 417  LLC: 2048
rand_sets[38]: 417
Assign rand_sets[39]: 472  LLC: 2048
rand_sets[39]: 472
Assign rand_sets[40]: 1340  LLC: 2048
rand_sets[40]: 1340
Assign rand_sets[41]: 852  LLC: 2048
rand_sets[41]: 852
Assign rand_sets[42]: 1365  LLC: 2048
rand_sets[42]: 1365
Assign rand_sets[43]: 47  LLC: 2048
rand_sets[43]: 47
Assign rand_sets[44]: 823  LLC: 2048
rand_sets[44]: 823
Assign rand_sets[45]: 686  LLC: 2048
rand_sets[45]: 686
Assign rand_sets[46]: 1637  LLC: 2048
rand_sets[46]: 1637
Assign rand_sets[47]: 1115  LLC: 2048
rand_sets[47]: 1115
Assign rand_sets[48]: 986  LLC: 2048
rand_sets[48]: 986
Assign rand_sets[49]: 258  LLC: 2048
rand_sets[49]: 258
Assign rand_sets[50]: 633  LLC: 2048
rand_sets[50]: 633
Assign rand_sets[51]: 920  LLC: 2048
rand_sets[51]: 920
Assign rand_sets[52]: 204  LLC: 2048
rand_sets[52]: 204
Assign rand_sets[53]: 227  LLC: 2048
rand_sets[53]: 227
Assign rand_sets[54]: 1818  LLC: 2048
rand_sets[54]: 1818
Assign rand_sets[55]: 886  LLC: 2048
rand_sets[55]: 886
Assign rand_sets[56]: 1422  LLC: 2048
rand_sets[56]: 1422
Assign rand_sets[57]: 607  LLC: 2048
rand_sets[57]: 607
Assign rand_sets[58]: 217  LLC: 2048
rand_sets[58]: 217
Assign rand_sets[59]: 1945  LLC: 2048
rand_sets[59]: 1945
Assign rand_sets[60]: 143  LLC: 2048
rand_sets[60]: 143
Assign rand_sets[61]: 1311  LLC: 2048
rand_sets[61]: 1311
Assign rand_sets[62]: 319  LLC: 2048
rand_sets[62]: 319
Assign rand_sets[63]: 1846  LLC: 2048
rand_sets[63]: 1846
Heartbeat CPU 0 instructions: 10000001 cycles: 3204019 heartbeat IPC: 3.12108 cumulative IPC: 3.12108 (Simulation time: 0 hr 0 min 16 sec) 
Heartbeat CPU 0 instructions: 20000000 cycles: 6404860 heartbeat IPC: 3.12418 cumulative IPC: 3.12263 (Simulation time: 0 hr 0 min 35 sec) 
Heartbeat CPU 0 instructions: 30000000 cycles: 9603792 heartbeat IPC: 3.12604 cumulative IPC: 3.12377 (Simulation time: 0 hr 0 min 53 sec) 
Heartbeat CPU 0 instructions: 40000002 cycles: 12800387 heartbeat IPC: 3.12833 cumulative IPC: 3.12491 (Simulation time: 0 hr 1 min 13 sec) 
Heartbeat CPU 0 instructions: 50000003 cycles: 15998810 heartbeat IPC: 3.12654 cumulative IPC: 3.12523 (Simulation time: 0 hr 1 min 30 sec) 
Heartbeat CPU 0 instructions: 60000002 cycles: 19195704 heartbeat IPC: 3.12804 cumulative IPC: 3.1257 (Simulation time: 0 hr 1 min 47 sec) 
Heartbeat CPU 0 instructions: 70000000 cycles: 22394886 heartbeat IPC: 3.1258 cumulative IPC: 3.12571 (Simulation time: 0 hr 2 min 4 sec) 
Heartbeat CPU 0 instructions: 80000000 cycles: 25596390 heartbeat IPC: 3.12353 cumulative IPC: 3.12544 (Simulation time: 0 hr 2 min 22 sec) 
Heartbeat CPU 0 instructions: 90000000 cycles: 28795867 heartbeat IPC: 3.12551 cumulative IPC: 3.12545 (Simulation time: 0 hr 2 min 39 sec) 
Heartbeat CPU 0 instructions: 100000001 cycles: 31996824 heartbeat IPC: 3.12407 cumulative IPC: 3.12531 (Simulation time: 0 hr 2 min 57 sec) 

Warmup complete CPU 0 instructions: 100000001 cycles: 31996824 (Simulation time: 0 hr 2 min 57 sec) 

Heartbeat CPU 0 instructions: 110000000 cycles: 39193179 heartbeat IPC: 1.38959 cumulative IPC: 1.38959 (Simulation time: 0 hr 3 min 10 sec) 
Heartbeat CPU 0 instructions: 120000001 cycles: 46339826 heartbeat IPC: 1.39926 cumulative IPC: 1.39441 (Simulation time: 0 hr 3 min 24 sec) 
Heartbeat CPU 0 instructions: 130000003 cycles: 53529033 heartbeat IPC: 1.39097 cumulative IPC: 1.39326 (Simulation time: 0 hr 3 min 37 sec) 
Heartbeat CPU 0 instructions: 140000000 cycles: 60763085 heartbeat IPC: 1.38235 cumulative IPC: 1.39052 (Simulation time: 0 hr 3 min 51 sec) 
Heartbeat CPU 0 instructions: 150000003 cycles: 67945802 heartbeat IPC: 1.39223 cumulative IPC: 1.39086 (Simulation time: 0 hr 4 min 7 sec) 
Heartbeat CPU 0 instructions: 160000001 cycles: 75240617 heartbeat IPC: 1.37084 cumulative IPC: 1.38748 (Simulation time: 0 hr 4 min 24 sec) 
Heartbeat CPU 0 instructions: 170000001 cycles: 82528394 heartbeat IPC: 1.37216 cumulative IPC: 1.38527 (Simulation time: 0 hr 4 min 39 sec) 
Heartbeat CPU 0 instructions: 180000002 cycles: 89732137 heartbeat IPC: 1.38817 cumulative IPC: 1.38563 (Simulation time: 0 hr 4 min 57 sec) 
Heartbeat CPU 0 instructions: 190000002 cycles: 96910220 heartbeat IPC: 1.39313 cumulative IPC: 1.38646 (Simulation time: 0 hr 5 min 12 sec) 
Heartbeat CPU 0 instructions: 200000002 cycles: 104128677 heartbeat IPC: 1.38534 cumulative IPC: 1.38635 (Simulation time: 0 hr 5 min 25 sec) 
Finished CPU 0 instructions: 100000001 cycles: 72131853 cumulative IPC: 1.38635 (Simulation time: 0 hr 5 min 25 sec) 

ChampSim completed all CPUs

Region of Interest Statistics

CPU 0 cumulative IPC: 1.38635 instructions: 100000001 cycles: 72131853
L1D TOTAL     ACCESS:   19364390  HIT:   19362082  MISS:       2308
L1D LOAD      ACCESS:   13121054  HIT:   13120827  MISS:        227
L1D RFO       ACCESS:    6243336  HIT:    6241255  MISS:       2081
L1D PREFETCH  ACCESS:          0  HIT:          0  MISS:          0
L1D WRITEBACK ACCESS:          0  HIT:          0  MISS:          0
L1D PREFETCH  REQUESTED:          0  ISSUED:          0  USEFUL:          0  USELESS:          0
L1D AVERAGE MISS LATENCY: 133.551 cycles
L1I TOTAL     ACCESS:   17767207  HIT:   17767207  MISS:          0
L1I LOAD      ACCESS:   17767207  HIT:   17767207  MISS:          0
L1I RFO       ACCESS:          0  HIT:          0  MISS:          0
L1I PREFETCH  ACCESS:          0  HIT:          0  MISS:          0
L1I WRITEBACK ACCESS:          0  HIT:          0  MISS:          0
L1I PREFETCH  REQUESTED:          0  ISSUED:          0  USEFUL:          0  USELESS:          0
L1I AVERAGE MISS LATENCY: -nan cycles
L2C TOTAL     ACCESS:       4398  HIT:       2132  MISS:       2266
L2C LOAD      ACCESS:        227  HIT:         20  MISS:        207
L2C RFO       ACCESS:       2081  HIT:         22  MISS:       2059
L2C PREFETCH  ACCESS:          0  HIT:          0  MISS:          0
L2C WRITEBACK ACCESS:       2090  HIT:       2090  MISS:          0
L2C PREFETCH  REQUESTED:          0  ISSUED:          0  USEFUL:          0  USELESS:          0
L2C AVERAGE MISS LATENCY: 120.282 cycles
LLC TOTAL     ACCESS:       2266  HIT:          0  MISS:       2266
LLC LOAD      ACCESS:        207  HIT:          0  MISS:        207
LLC RFO       ACCESS:       2059  HIT:          0  MISS:       2059
LLC PREFETCH  ACCESS:          0  HIT:          0  MISS:          0
LLC WRITEBACK ACCESS:          0  HIT:          0  MISS:          0
LLC PREFETCH  REQUESTED:          0  ISSUED:          0  USEFUL:          0  USELESS:          0
LLC AVERAGE MISS LATENCY: 90.0874 cycles
Major fault: 0 Minor fault: 75

DRAM Statistics
 CHANNEL 0
 RQ ROW_BUFFER_HIT:       1884  ROW_BUFFER_MISS:        382
 DBUS_CONGESTED:        101
 WQ ROW_BUFFER_HIT:          0  ROW_BUFFER_MISS:          0  FULL:          0

 AVG_CONGESTED_CYCLE: 4

CPU 0 Branch Prediction Accuracy: 93.5277% MPKI: 7.10121 Average ROB Occupancy at Mispredict: 59.6193

Branch types
NOT_BRANCH: 89028091 89.0281%
BRANCH_DIRECT_JUMP: 203031 0.203031%
BRANCH_INDIRECT: 0 0%
BRANCH_CONDITIONAL: 10720632 10.7206%
BRANCH_DIRECT_CALL: 23982 0.023982%
BRANCH_INDIRECT_CALL: 0 0%
BRANCH_RETURN: 23981 0.023981%
BRANCH_OTHER: 0 0%

