
*** ChampSim Multicore Out-of-Order Simulator ***

Warmup Instructions: 100000000
Simulation Instructions: 100000000
Number of CPUs: 1
LLC sets: 2048
LLC ways: 16
Off-chip DRAM Size: 4096 MB Channels: 1 Width: 64-bit Data Rate: 3200 MT/s

CPU 0 runs /home/sai/ChampSim/traces/400.perlbench-41B.champsimtrace.xz
CPU 0 Bimodal branch predictor
CPU 0 L2C next line prefetcher
Initialize DRRIP state
Assign rand_sets[0]: 454  LLC: 2048
rand_sets[0]: 454
Assign rand_sets[1]: 1662  LLC: 2048
rand_sets[1]: 1662
Assign rand_sets[2]: 1921  LLC: 2048
rand_sets[2]: 1921
Assign rand_sets[3]: 1131  LLC: 2048
rand_sets[3]: 1131
Assign rand_sets[4]: 331  LLC: 2048
rand_sets[4]: 331
Assign rand_sets[5]: 1531  LLC: 2048
rand_sets[5]: 1531
Assign rand_sets[6]: 482  LLC: 2048
rand_sets[6]: 482
Assign rand_sets[7]: 1275  LLC: 2048
rand_sets[7]: 1275
Assign rand_sets[8]: 1876  LLC: 2048
rand_sets[8]: 1876
Assign rand_sets[9]: 2038  LLC: 2048
rand_sets[9]: 2038
Assign rand_sets[10]: 701  LLC: 2048
rand_sets[10]: 701
Assign rand_sets[11]: 479  LLC: 2048
rand_sets[11]: 479
Assign rand_sets[12]: 892  LLC: 2048
rand_sets[12]: 892
Assign rand_sets[13]: 1820  LLC: 2048
rand_sets[13]: 1820
Assign rand_sets[14]: 1505  LLC: 2048
rand_sets[14]: 1505
Assign rand_sets[15]: 1159  LLC: 2048
rand_sets[15]: 1159
Assign rand_sets[16]: 513  LLC: 2048
rand_sets[16]: 513
Assign rand_sets[17]: 703  LLC: 2048
rand_sets[17]: 703
Assign rand_sets[18]: 561  LLC: 2048
rand_sets[18]: 561
Assign rand_sets[19]: 990  LLC: 2048
rand_sets[19]: 990
Assign rand_sets[20]: 342  LLC: 2048
rand_sets[20]: 342
Assign rand_sets[21]: 882  LLC: 2048
rand_sets[21]: 882
Assign rand_sets[22]: 15  LLC: 2048
rand_sets[22]: 15
Assign rand_sets[23]: 71  LLC: 2048
rand_sets[23]: 71
Assign rand_sets[24]: 1127  LLC: 2048
rand_sets[24]: 1127
Assign rand_sets[25]: 1382  LLC: 2048
rand_sets[25]: 1382
Assign rand_sets[26]: 647  LLC: 2048
rand_sets[26]: 647
Assign rand_sets[27]: 857  LLC: 2048
rand_sets[27]: 857
Assign rand_sets[28]: 1450  LLC: 2048
rand_sets[28]: 1450
Assign rand_sets[29]: 1160  LLC: 2048
rand_sets[29]: 1160
Assign rand_sets[30]: 1852  LLC: 2048
rand_sets[30]: 1852
Assign rand_sets[31]: 1881  LLC: 2048
rand_sets[31]: 1881
Assign rand_sets[32]: 1770  LLC: 2048
rand_sets[32]: 1770
Assign rand_sets[33]: 1622  LLC: 2048
rand_sets[33]: 1622
Assign rand_sets[34]: 275  LLC: 2048
rand_sets[34]: 275
Assign rand_sets[35]: 635  LLC: 2048
rand_sets[35]: 635
Assign rand_sets[36]: 466  LLC: 2048
rand_sets[36]: 466
Assign rand_sets[37]: 1413  LLC: 2048
rand_sets[37]: 1413
Assign rand_sets[38]: 417  LLC: 2048
rand_sets[38]: 417
Assign rand_sets[39]: 472  LLC: 2048
rand_sets[39]: 472
Assign rand_sets[40]: 1340  LLC: 2048
rand_sets[40]: 1340
Assign rand_sets[41]: 852  LLC: 2048
rand_sets[41]: 852
Assign rand_sets[42]: 1365  LLC: 2048
rand_sets[42]: 1365
Assign rand_sets[43]: 47  LLC: 2048
rand_sets[43]: 47
Assign rand_sets[44]: 823  LLC: 2048
rand_sets[44]: 823
Assign rand_sets[45]: 686  LLC: 2048
rand_sets[45]: 686
Assign rand_sets[46]: 1637  LLC: 2048
rand_sets[46]: 1637
Assign rand_sets[47]: 1115  LLC: 2048
rand_sets[47]: 1115
Assign rand_sets[48]: 986  LLC: 2048
rand_sets[48]: 986
Assign rand_sets[49]: 258  LLC: 2048
rand_sets[49]: 258
Assign rand_sets[50]: 633  LLC: 2048
rand_sets[50]: 633
Assign rand_sets[51]: 920  LLC: 2048
rand_sets[51]: 920
Assign rand_sets[52]: 204  LLC: 2048
rand_sets[52]: 204
Assign rand_sets[53]: 227  LLC: 2048
rand_sets[53]: 227
Assign rand_sets[54]: 1818  LLC: 2048
rand_sets[54]: 1818
Assign rand_sets[55]: 886  LLC: 2048
rand_sets[55]: 886
Assign rand_sets[56]: 1422  LLC: 2048
rand_sets[56]: 1422
Assign rand_sets[57]: 607  LLC: 2048
rand_sets[57]: 607
Assign rand_sets[58]: 217  LLC: 2048
rand_sets[58]: 217
Assign rand_sets[59]: 1945  LLC: 2048
rand_sets[59]: 1945
Assign rand_sets[60]: 143  LLC: 2048
rand_sets[60]: 143
Assign rand_sets[61]: 1311  LLC: 2048
rand_sets[61]: 1311
Assign rand_sets[62]: 319  LLC: 2048
rand_sets[62]: 319
Assign rand_sets[63]: 1846  LLC: 2048
rand_sets[63]: 1846
Heartbeat CPU 0 instructions: 10000003 cycles: 4827343 heartbeat IPC: 2.07153 cumulative IPC: 2.07153 (Simulation time: 0 hr 0 min 51 sec) 
Heartbeat CPU 0 instructions: 20000001 cycles: 9606838 heartbeat IPC: 2.09227 cumulative IPC: 2.08185 (Simulation time: 0 hr 1 min 48 sec) 
Heartbeat CPU 0 instructions: 30000001 cycles: 13910904 heartbeat IPC: 2.32338 cumulative IPC: 2.15658 (Simulation time: 0 hr 2 min 43 sec) 
Heartbeat CPU 0 instructions: 40000001 cycles: 18499467 heartbeat IPC: 2.17933 cumulative IPC: 2.16222 (Simulation time: 0 hr 3 min 43 sec) 
Heartbeat CPU 0 instructions: 50000003 cycles: 22987132 heartbeat IPC: 2.22833 cumulative IPC: 2.17513 (Simulation time: 0 hr 4 min 38 sec) 
Heartbeat CPU 0 instructions: 60000000 cycles: 26942529 heartbeat IPC: 2.52819 cumulative IPC: 2.22696 (Simulation time: 0 hr 5 min 37 sec) 
Heartbeat CPU 0 instructions: 70000003 cycles: 31323515 heartbeat IPC: 2.28259 cumulative IPC: 2.23474 (Simulation time: 0 hr 7 min 5 sec) 
Heartbeat CPU 0 instructions: 80000000 cycles: 35577406 heartbeat IPC: 2.35079 cumulative IPC: 2.24862 (Simulation time: 0 hr 8 min 38 sec) 
Heartbeat CPU 0 instructions: 90000000 cycles: 39871659 heartbeat IPC: 2.32869 cumulative IPC: 2.25724 (Simulation time: 0 hr 10 min 4 sec) 
Heartbeat CPU 0 instructions: 100000001 cycles: 44245572 heartbeat IPC: 2.28628 cumulative IPC: 2.26011 (Simulation time: 0 hr 11 min 24 sec) 

Warmup complete CPU 0 instructions: 100000001 cycles: 44245572 (Simulation time: 0 hr 11 min 24 sec) 

Heartbeat CPU 0 instructions: 110000000 cycles: 55034771 heartbeat IPC: 0.926853 cumulative IPC: 0.926853 (Simulation time: 0 hr 12 min 34 sec) 
Heartbeat CPU 0 instructions: 120000001 cycles: 66740838 heartbeat IPC: 0.854258 cumulative IPC: 0.889076 (Simulation time: 0 hr 13 min 42 sec) 
Heartbeat CPU 0 instructions: 130000000 cycles: 79112111 heartbeat IPC: 0.808324 cumulative IPC: 0.860424 (Simulation time: 0 hr 14 min 55 sec) 
Heartbeat CPU 0 instructions: 140000002 cycles: 90566450 heartbeat IPC: 0.873032 cumulative IPC: 0.863541 (Simulation time: 0 hr 15 min 50 sec) 
Heartbeat CPU 0 instructions: 150000001 cycles: 102168068 heartbeat IPC: 0.861949 cumulative IPC: 0.863222 (Simulation time: 0 hr 16 min 58 sec) 
Heartbeat CPU 0 instructions: 160000000 cycles: 113469050 heartbeat IPC: 0.884879 cumulative IPC: 0.866758 (Simulation time: 0 hr 18 min 6 sec) 
Heartbeat CPU 0 instructions: 170000000 cycles: 128432916 heartbeat IPC: 0.668276 cumulative IPC: 0.831479 (Simulation time: 0 hr 19 min 18 sec) 
Heartbeat CPU 0 instructions: 180000001 cycles: 144275096 heartbeat IPC: 0.631226 cumulative IPC: 0.799764 (Simulation time: 0 hr 20 min 42 sec) 
Heartbeat CPU 0 instructions: 190000000 cycles: 160904260 heartbeat IPC: 0.601353 cumulative IPC: 0.771481 (Simulation time: 0 hr 22 min 3 sec) 
Heartbeat CPU 0 instructions: 200000003 cycles: 172094427 heartbeat IPC: 0.893642 cumulative IPC: 0.782174 (Simulation time: 0 hr 23 min 17 sec) 
Finished CPU 0 instructions: 100000002 cycles: 127848855 cumulative IPC: 0.782174 (Simulation time: 0 hr 23 min 17 sec) 

ChampSim completed all CPUs

Region of Interest Statistics

CPU 0 cumulative IPC: 0.782174 instructions: 100000002 cycles: 127848855
L1D TOTAL     ACCESS:   31262363  HIT:   31069207  MISS:     193156
L1D LOAD      ACCESS:   17714686  HIT:   17541623  MISS:     173063
L1D RFO       ACCESS:   13547677  HIT:   13527584  MISS:      20093
L1D PREFETCH  ACCESS:          0  HIT:          0  MISS:          0
L1D WRITEBACK ACCESS:          0  HIT:          0  MISS:          0
L1D PREFETCH  REQUESTED:          0  ISSUED:          0  USEFUL:          0  USELESS:          0
L1D AVERAGE MISS LATENCY: 60.7481 cycles
L1I TOTAL     ACCESS:   18897920  HIT:   18724099  MISS:     173821
L1I LOAD      ACCESS:   18897920  HIT:   18724099  MISS:     173821
L1I RFO       ACCESS:          0  HIT:          0  MISS:          0
L1I PREFETCH  ACCESS:          0  HIT:          0  MISS:          0
L1I WRITEBACK ACCESS:          0  HIT:          0  MISS:          0
L1I PREFETCH  REQUESTED:          0  ISSUED:          0  USEFUL:          0  USELESS:          0
L1I AVERAGE MISS LATENCY: 16.8763 cycles
L2C TOTAL     ACCESS:     754703  HIT:     621343  MISS:     133360
L2C LOAD      ACCESS:     346882  HIT:     283258  MISS:      63624
L2C RFO       ACCESS:      20091  HIT:      13208  MISS:       6883
L2C PREFETCH  ACCESS:     334502  HIT:     271981  MISS:      62521
L2C WRITEBACK ACCESS:      53228  HIT:      52896  MISS:        332
L2C PREFETCH  REQUESTED:     346882  ISSUED:     343083  USEFUL:      29801  USELESS:      32723
L2C AVERAGE MISS LATENCY: 133.084 cycles
LLC TOTAL     ACCESS:     152433  HIT:      59157  MISS:      93276
LLC LOAD      ACCESS:      59241  HIT:      17663  MISS:      41578
LLC RFO       ACCESS:       6839  HIT:       2601  MISS:       4238
LLC PREFETCH  ACCESS:      66947  HIT:      19694  MISS:      47253
LLC WRITEBACK ACCESS:      19406  HIT:      19199  MISS:        207
LLC PREFETCH  REQUESTED:          0  ISSUED:          0  USEFUL:       1693  USELESS:      46239
LLC AVERAGE MISS LATENCY: 149.548 cycles
Major fault: 0 Minor fault: 4637
CPU 0 L2C next line prefetcher final stats

DRAM Statistics
 CHANNEL 0
 RQ ROW_BUFFER_HIT:      21626  ROW_BUFFER_MISS:      71443
 DBUS_CONGESTED:       5464
 WQ ROW_BUFFER_HIT:       4266  ROW_BUFFER_MISS:       8249  FULL:          0

 AVG_CONGESTED_CYCLE: 6

CPU 0 Branch Prediction Accuracy: 95.2818% MPKI: 9.76349 Average ROB Occupancy at Mispredict: 49.4621

Branch types
NOT_BRANCH: 79306395 79.3064%
BRANCH_DIRECT_JUMP: 1595153 1.59515%
BRANCH_INDIRECT: 886650 0.88665%
BRANCH_CONDITIONAL: 16112828 16.1128%
BRANCH_DIRECT_CALL: 911124 0.911124%
BRANCH_INDIRECT_CALL: 138180 0.13818%
BRANCH_RETURN: 1049305 1.0493%
BRANCH_OTHER: 0 0%

