
*** ChampSim Multicore Out-of-Order Simulator ***

Warmup Instructions: 100000000
Simulation Instructions: 100000000
Number of CPUs: 1
LLC sets: 2048
LLC ways: 16
Off-chip DRAM Size: 4096 MB Channels: 1 Width: 64-bit Data Rate: 3200 MT/s

CPU 0 runs /home/sai/ChampSim/traces/410.bwaves-945B.champsimtrace.xz
CPU 0 Bimodal branch predictor
CPU 0 L2C next line prefetcher
Initialize DRRIP state
Assign rand_sets[0]: 454  LLC: 2048
rand_sets[0]: 454
Assign rand_sets[1]: 1662  LLC: 2048
rand_sets[1]: 1662
Assign rand_sets[2]: 1921  LLC: 2048
rand_sets[2]: 1921
Assign rand_sets[3]: 1131  LLC: 2048
rand_sets[3]: 1131
Assign rand_sets[4]: 331  LLC: 2048
rand_sets[4]: 331
Assign rand_sets[5]: 1531  LLC: 2048
rand_sets[5]: 1531
Assign rand_sets[6]: 482  LLC: 2048
rand_sets[6]: 482
Assign rand_sets[7]: 1275  LLC: 2048
rand_sets[7]: 1275
Assign rand_sets[8]: 1876  LLC: 2048
rand_sets[8]: 1876
Assign rand_sets[9]: 2038  LLC: 2048
rand_sets[9]: 2038
Assign rand_sets[10]: 701  LLC: 2048
rand_sets[10]: 701
Assign rand_sets[11]: 479  LLC: 2048
rand_sets[11]: 479
Assign rand_sets[12]: 892  LLC: 2048
rand_sets[12]: 892
Assign rand_sets[13]: 1820  LLC: 2048
rand_sets[13]: 1820
Assign rand_sets[14]: 1505  LLC: 2048
rand_sets[14]: 1505
Assign rand_sets[15]: 1159  LLC: 2048
rand_sets[15]: 1159
Assign rand_sets[16]: 513  LLC: 2048
rand_sets[16]: 513
Assign rand_sets[17]: 703  LLC: 2048
rand_sets[17]: 703
Assign rand_sets[18]: 561  LLC: 2048
rand_sets[18]: 561
Assign rand_sets[19]: 990  LLC: 2048
rand_sets[19]: 990
Assign rand_sets[20]: 342  LLC: 2048
rand_sets[20]: 342
Assign rand_sets[21]: 882  LLC: 2048
rand_sets[21]: 882
Assign rand_sets[22]: 15  LLC: 2048
rand_sets[22]: 15
Assign rand_sets[23]: 71  LLC: 2048
rand_sets[23]: 71
Assign rand_sets[24]: 1127  LLC: 2048
rand_sets[24]: 1127
Assign rand_sets[25]: 1382  LLC: 2048
rand_sets[25]: 1382
Assign rand_sets[26]: 647  LLC: 2048
rand_sets[26]: 647
Assign rand_sets[27]: 857  LLC: 2048
rand_sets[27]: 857
Assign rand_sets[28]: 1450  LLC: 2048
rand_sets[28]: 1450
Assign rand_sets[29]: 1160  LLC: 2048
rand_sets[29]: 1160
Assign rand_sets[30]: 1852  LLC: 2048
rand_sets[30]: 1852
Assign rand_sets[31]: 1881  LLC: 2048
rand_sets[31]: 1881
Assign rand_sets[32]: 1770  LLC: 2048
rand_sets[32]: 1770
Assign rand_sets[33]: 1622  LLC: 2048
rand_sets[33]: 1622
Assign rand_sets[34]: 275  LLC: 2048
rand_sets[34]: 275
Assign rand_sets[35]: 635  LLC: 2048
rand_sets[35]: 635
Assign rand_sets[36]: 466  LLC: 2048
rand_sets[36]: 466
Assign rand_sets[37]: 1413  LLC: 2048
rand_sets[37]: 1413
Assign rand_sets[38]: 417  LLC: 2048
rand_sets[38]: 417
Assign rand_sets[39]: 472  LLC: 2048
rand_sets[39]: 472
Assign rand_sets[40]: 1340  LLC: 2048
rand_sets[40]: 1340
Assign rand_sets[41]: 852  LLC: 2048
rand_sets[41]: 852
Assign rand_sets[42]: 1365  LLC: 2048
rand_sets[42]: 1365
Assign rand_sets[43]: 47  LLC: 2048
rand_sets[43]: 47
Assign rand_sets[44]: 823  LLC: 2048
rand_sets[44]: 823
Assign rand_sets[45]: 686  LLC: 2048
rand_sets[45]: 686
Assign rand_sets[46]: 1637  LLC: 2048
rand_sets[46]: 1637
Assign rand_sets[47]: 1115  LLC: 2048
rand_sets[47]: 1115
Assign rand_sets[48]: 986  LLC: 2048
rand_sets[48]: 986
Assign rand_sets[49]: 258  LLC: 2048
rand_sets[49]: 258
Assign rand_sets[50]: 633  LLC: 2048
rand_sets[50]: 633
Assign rand_sets[51]: 920  LLC: 2048
rand_sets[51]: 920
Assign rand_sets[52]: 204  LLC: 2048
rand_sets[52]: 204
Assign rand_sets[53]: 227  LLC: 2048
rand_sets[53]: 227
Assign rand_sets[54]: 1818  LLC: 2048
rand_sets[54]: 1818
Assign rand_sets[55]: 886  LLC: 2048
rand_sets[55]: 886
Assign rand_sets[56]: 1422  LLC: 2048
rand_sets[56]: 1422
Assign rand_sets[57]: 607  LLC: 2048
rand_sets[57]: 607
Assign rand_sets[58]: 217  LLC: 2048
rand_sets[58]: 217
Assign rand_sets[59]: 1945  LLC: 2048
rand_sets[59]: 1945
Assign rand_sets[60]: 143  LLC: 2048
rand_sets[60]: 143
Assign rand_sets[61]: 1311  LLC: 2048
rand_sets[61]: 1311
Assign rand_sets[62]: 319  LLC: 2048
rand_sets[62]: 319
Assign rand_sets[63]: 1846  LLC: 2048
rand_sets[63]: 1846
Heartbeat CPU 0 instructions: 10000001 cycles: 3203952 heartbeat IPC: 3.12115 cumulative IPC: 3.12115 (Simulation time: 0 hr 0 min 40 sec) 
Heartbeat CPU 0 instructions: 20000000 cycles: 6404791 heartbeat IPC: 3.12418 cumulative IPC: 3.12266 (Simulation time: 0 hr 1 min 19 sec) 
Heartbeat CPU 0 instructions: 30000000 cycles: 9603719 heartbeat IPC: 3.12605 cumulative IPC: 3.12379 (Simulation time: 0 hr 1 min 59 sec) 
Heartbeat CPU 0 instructions: 40000002 cycles: 12800305 heartbeat IPC: 3.12834 cumulative IPC: 3.12493 (Simulation time: 0 hr 2 min 38 sec) 
Heartbeat CPU 0 instructions: 50000003 cycles: 15998722 heartbeat IPC: 3.12655 cumulative IPC: 3.12525 (Simulation time: 0 hr 3 min 23 sec) 
Heartbeat CPU 0 instructions: 60000002 cycles: 19195609 heartbeat IPC: 3.12804 cumulative IPC: 3.12572 (Simulation time: 0 hr 4 min 9 sec) 
Heartbeat CPU 0 instructions: 70000000 cycles: 22394789 heartbeat IPC: 3.1258 cumulative IPC: 3.12573 (Simulation time: 0 hr 5 min 0 sec) 
Heartbeat CPU 0 instructions: 80000000 cycles: 25596267 heartbeat IPC: 3.12356 cumulative IPC: 3.12546 (Simulation time: 0 hr 5 min 53 sec) 
Heartbeat CPU 0 instructions: 90000000 cycles: 28795742 heartbeat IPC: 3.12551 cumulative IPC: 3.12546 (Simulation time: 0 hr 6 min 39 sec) 
Heartbeat CPU 0 instructions: 100000001 cycles: 31996684 heartbeat IPC: 3.12408 cumulative IPC: 3.12532 (Simulation time: 0 hr 7 min 26 sec) 

Warmup complete CPU 0 instructions: 100000001 cycles: 31996684 (Simulation time: 0 hr 7 min 26 sec) 

Heartbeat CPU 0 instructions: 110000000 cycles: 39192291 heartbeat IPC: 1.38974 cumulative IPC: 1.38974 (Simulation time: 0 hr 7 min 55 sec) 
Heartbeat CPU 0 instructions: 120000001 cycles: 46334227 heartbeat IPC: 1.40018 cumulative IPC: 1.39494 (Simulation time: 0 hr 8 min 36 sec) 
Heartbeat CPU 0 instructions: 130000003 cycles: 53523233 heartbeat IPC: 1.39101 cumulative IPC: 1.39363 (Simulation time: 0 hr 9 min 19 sec) 
Heartbeat CPU 0 instructions: 140000000 cycles: 60753313 heartbeat IPC: 1.38311 cumulative IPC: 1.39098 (Simulation time: 0 hr 10 min 2 sec) 
Heartbeat CPU 0 instructions: 150000003 cycles: 67933523 heartbeat IPC: 1.39272 cumulative IPC: 1.39133 (Simulation time: 0 hr 10 min 42 sec) 
Heartbeat CPU 0 instructions: 160000001 cycles: 75226255 heartbeat IPC: 1.37123 cumulative IPC: 1.38794 (Simulation time: 0 hr 11 min 17 sec) 
Heartbeat CPU 0 instructions: 170000001 cycles: 82503372 heartbeat IPC: 1.37417 cumulative IPC: 1.38596 (Simulation time: 0 hr 11 min 55 sec) 
Heartbeat CPU 0 instructions: 180000002 cycles: 89701708 heartbeat IPC: 1.38921 cumulative IPC: 1.38636 (Simulation time: 0 hr 12 min 30 sec) 
Heartbeat CPU 0 instructions: 190000002 cycles: 96879339 heartbeat IPC: 1.39322 cumulative IPC: 1.38712 (Simulation time: 0 hr 13 min 12 sec) 
Heartbeat CPU 0 instructions: 200000002 cycles: 104095586 heartbeat IPC: 1.38576 cumulative IPC: 1.38698 (Simulation time: 0 hr 13 min 53 sec) 
Finished CPU 0 instructions: 100000001 cycles: 72098902 cumulative IPC: 1.38698 (Simulation time: 0 hr 13 min 53 sec) 

ChampSim completed all CPUs

Region of Interest Statistics

CPU 0 cumulative IPC: 1.38698 instructions: 100000001 cycles: 72098902
L1D TOTAL     ACCESS:   19364418  HIT:   19362110  MISS:       2308
L1D LOAD      ACCESS:   13121057  HIT:   13120830  MISS:        227
L1D RFO       ACCESS:    6243361  HIT:    6241280  MISS:       2081
L1D PREFETCH  ACCESS:          0  HIT:          0  MISS:          0
L1D WRITEBACK ACCESS:          0  HIT:          0  MISS:          0
L1D PREFETCH  REQUESTED:          0  ISSUED:          0  USEFUL:          0  USELESS:          0
L1D AVERAGE MISS LATENCY: 112.982 cycles
L1I TOTAL     ACCESS:   17766766  HIT:   17766766  MISS:          0
L1I LOAD      ACCESS:   17766766  HIT:   17766766  MISS:          0
L1I RFO       ACCESS:          0  HIT:          0  MISS:          0
L1I PREFETCH  ACCESS:          0  HIT:          0  MISS:          0
L1I WRITEBACK ACCESS:          0  HIT:          0  MISS:          0
L1I PREFETCH  REQUESTED:          0  ISSUED:          0  USEFUL:          0  USELESS:          0
L1I AVERAGE MISS LATENCY: -nan cycles
L2C TOTAL     ACCESS:       4622  HIT:       2356  MISS:       2266
L2C LOAD      ACCESS:        227  HIT:        224  MISS:          3
L2C RFO       ACCESS:       2081  HIT:         22  MISS:       2059
L2C PREFETCH  ACCESS:        224  HIT:         20  MISS:        204
L2C WRITEBACK ACCESS:       2090  HIT:       2090  MISS:          0
L2C PREFETCH  REQUESTED:        227  ISSUED:        224  USEFUL:        204  USELESS:          0
L2C AVERAGE MISS LATENCY: 111.851 cycles
LLC TOTAL     ACCESS:       2266  HIT:          0  MISS:       2266
LLC LOAD      ACCESS:          3  HIT:          0  MISS:          3
LLC RFO       ACCESS:       2059  HIT:          0  MISS:       2059
LLC PREFETCH  ACCESS:        204  HIT:          0  MISS:        204
LLC WRITEBACK ACCESS:          0  HIT:          0  MISS:          0
LLC PREFETCH  REQUESTED:          0  ISSUED:          0  USEFUL:          0  USELESS:          9
LLC AVERAGE MISS LATENCY: 81.6293 cycles
Major fault: 0 Minor fault: 75
CPU 0 L2C next line prefetcher final stats

DRAM Statistics
 CHANNEL 0
 RQ ROW_BUFFER_HIT:       2062  ROW_BUFFER_MISS:        204
 DBUS_CONGESTED:         85
 WQ ROW_BUFFER_HIT:          0  ROW_BUFFER_MISS:          0  FULL:          0

 AVG_CONGESTED_CYCLE: 4

CPU 0 Branch Prediction Accuracy: 93.5277% MPKI: 7.10121 Average ROB Occupancy at Mispredict: 59.6158

Branch types
NOT_BRANCH: 89028091 89.0281%
BRANCH_DIRECT_JUMP: 203031 0.203031%
BRANCH_INDIRECT: 0 0%
BRANCH_CONDITIONAL: 10720632 10.7206%
BRANCH_DIRECT_CALL: 23982 0.023982%
BRANCH_INDIRECT_CALL: 0 0%
BRANCH_RETURN: 23981 0.023981%
BRANCH_OTHER: 0 0%

