
*** ChampSim Multicore Out-of-Order Simulator ***

Warmup Instructions: 100000000
Simulation Instructions: 100000000
Number of CPUs: 1
LLC sets: 2048
LLC ways: 16
Off-chip DRAM Size: 4096 MB Channels: 1 Width: 64-bit Data Rate: 3200 MT/s

CPU 0 runs /home/sai/ChampSim/traces/458.sjeng-1088B.champsimtrace.xz
CPU 0 Bimodal branch predictor
CPU 0 L2C next line prefetcher
Initialize DRRIP state
Assign rand_sets[0]: 454  LLC: 2048
rand_sets[0]: 454
Assign rand_sets[1]: 1662  LLC: 2048
rand_sets[1]: 1662
Assign rand_sets[2]: 1921  LLC: 2048
rand_sets[2]: 1921
Assign rand_sets[3]: 1131  LLC: 2048
rand_sets[3]: 1131
Assign rand_sets[4]: 331  LLC: 2048
rand_sets[4]: 331
Assign rand_sets[5]: 1531  LLC: 2048
rand_sets[5]: 1531
Assign rand_sets[6]: 482  LLC: 2048
rand_sets[6]: 482
Assign rand_sets[7]: 1275  LLC: 2048
rand_sets[7]: 1275
Assign rand_sets[8]: 1876  LLC: 2048
rand_sets[8]: 1876
Assign rand_sets[9]: 2038  LLC: 2048
rand_sets[9]: 2038
Assign rand_sets[10]: 701  LLC: 2048
rand_sets[10]: 701
Assign rand_sets[11]: 479  LLC: 2048
rand_sets[11]: 479
Assign rand_sets[12]: 892  LLC: 2048
rand_sets[12]: 892
Assign rand_sets[13]: 1820  LLC: 2048
rand_sets[13]: 1820
Assign rand_sets[14]: 1505  LLC: 2048
rand_sets[14]: 1505
Assign rand_sets[15]: 1159  LLC: 2048
rand_sets[15]: 1159
Assign rand_sets[16]: 513  LLC: 2048
rand_sets[16]: 513
Assign rand_sets[17]: 703  LLC: 2048
rand_sets[17]: 703
Assign rand_sets[18]: 561  LLC: 2048
rand_sets[18]: 561
Assign rand_sets[19]: 990  LLC: 2048
rand_sets[19]: 990
Assign rand_sets[20]: 342  LLC: 2048
rand_sets[20]: 342
Assign rand_sets[21]: 882  LLC: 2048
rand_sets[21]: 882
Assign rand_sets[22]: 15  LLC: 2048
rand_sets[22]: 15
Assign rand_sets[23]: 71  LLC: 2048
rand_sets[23]: 71
Assign rand_sets[24]: 1127  LLC: 2048
rand_sets[24]: 1127
Assign rand_sets[25]: 1382  LLC: 2048
rand_sets[25]: 1382
Assign rand_sets[26]: 647  LLC: 2048
rand_sets[26]: 647
Assign rand_sets[27]: 857  LLC: 2048
rand_sets[27]: 857
Assign rand_sets[28]: 1450  LLC: 2048
rand_sets[28]: 1450
Assign rand_sets[29]: 1160  LLC: 2048
rand_sets[29]: 1160
Assign rand_sets[30]: 1852  LLC: 2048
rand_sets[30]: 1852
Assign rand_sets[31]: 1881  LLC: 2048
rand_sets[31]: 1881
Assign rand_sets[32]: 1770  LLC: 2048
rand_sets[32]: 1770
Assign rand_sets[33]: 1622  LLC: 2048
rand_sets[33]: 1622
Assign rand_sets[34]: 275  LLC: 2048
rand_sets[34]: 275
Assign rand_sets[35]: 635  LLC: 2048
rand_sets[35]: 635
Assign rand_sets[36]: 466  LLC: 2048
rand_sets[36]: 466
Assign rand_sets[37]: 1413  LLC: 2048
rand_sets[37]: 1413
Assign rand_sets[38]: 417  LLC: 2048
rand_sets[38]: 417
Assign rand_sets[39]: 472  LLC: 2048
rand_sets[39]: 472
Assign rand_sets[40]: 1340  LLC: 2048
rand_sets[40]: 1340
Assign rand_sets[41]: 852  LLC: 2048
rand_sets[41]: 852
Assign rand_sets[42]: 1365  LLC: 2048
rand_sets[42]: 1365
Assign rand_sets[43]: 47  LLC: 2048
rand_sets[43]: 47
Assign rand_sets[44]: 823  LLC: 2048
rand_sets[44]: 823
Assign rand_sets[45]: 686  LLC: 2048
rand_sets[45]: 686
Assign rand_sets[46]: 1637  LLC: 2048
rand_sets[46]: 1637
Assign rand_sets[47]: 1115  LLC: 2048
rand_sets[47]: 1115
Assign rand_sets[48]: 986  LLC: 2048
rand_sets[48]: 986
Assign rand_sets[49]: 258  LLC: 2048
rand_sets[49]: 258
Assign rand_sets[50]: 633  LLC: 2048
rand_sets[50]: 633
Assign rand_sets[51]: 920  LLC: 2048
rand_sets[51]: 920
Assign rand_sets[52]: 204  LLC: 2048
rand_sets[52]: 204
Assign rand_sets[53]: 227  LLC: 2048
rand_sets[53]: 227
Assign rand_sets[54]: 1818  LLC: 2048
rand_sets[54]: 1818
Assign rand_sets[55]: 886  LLC: 2048
rand_sets[55]: 886
Assign rand_sets[56]: 1422  LLC: 2048
rand_sets[56]: 1422
Assign rand_sets[57]: 607  LLC: 2048
rand_sets[57]: 607
Assign rand_sets[58]: 217  LLC: 2048
rand_sets[58]: 217
Assign rand_sets[59]: 1945  LLC: 2048
rand_sets[59]: 1945
Assign rand_sets[60]: 143  LLC: 2048
rand_sets[60]: 143
Assign rand_sets[61]: 1311  LLC: 2048
rand_sets[61]: 1311
Assign rand_sets[62]: 319  LLC: 2048
rand_sets[62]: 319
Assign rand_sets[63]: 1846  LLC: 2048
rand_sets[63]: 1846
Heartbeat CPU 0 instructions: 10000001 cycles: 3745752 heartbeat IPC: 2.66969 cumulative IPC: 2.66969 (Simulation time: 0 hr 0 min 54 sec) 
Heartbeat CPU 0 instructions: 20000001 cycles: 7497693 heartbeat IPC: 2.66529 cumulative IPC: 2.66749 (Simulation time: 0 hr 1 min 53 sec) 
Heartbeat CPU 0 instructions: 30000001 cycles: 11230436 heartbeat IPC: 2.679 cumulative IPC: 2.67131 (Simulation time: 0 hr 2 min 35 sec) 
Heartbeat CPU 0 instructions: 40000002 cycles: 14951577 heartbeat IPC: 2.68735 cumulative IPC: 2.6753 (Simulation time: 0 hr 3 min 19 sec) 
Heartbeat CPU 0 instructions: 50000000 cycles: 18682342 heartbeat IPC: 2.68041 cumulative IPC: 2.67632 (Simulation time: 0 hr 4 min 1 sec) 
Heartbeat CPU 0 instructions: 60000002 cycles: 22414215 heartbeat IPC: 2.67962 cumulative IPC: 2.67687 (Simulation time: 0 hr 4 min 50 sec) 
Heartbeat CPU 0 instructions: 70000002 cycles: 26135444 heartbeat IPC: 2.68728 cumulative IPC: 2.67836 (Simulation time: 0 hr 5 min 38 sec) 
Heartbeat CPU 0 instructions: 80000000 cycles: 29849698 heartbeat IPC: 2.69233 cumulative IPC: 2.68009 (Simulation time: 0 hr 6 min 27 sec) 
Heartbeat CPU 0 instructions: 90000003 cycles: 33588883 heartbeat IPC: 2.67438 cumulative IPC: 2.67946 (Simulation time: 0 hr 7 min 29 sec) 
Heartbeat CPU 0 instructions: 100000003 cycles: 37331236 heartbeat IPC: 2.67212 cumulative IPC: 2.67872 (Simulation time: 0 hr 8 min 22 sec) 

Warmup complete CPU 0 instructions: 100000003 cycles: 37331236 (Simulation time: 0 hr 8 min 22 sec) 

Heartbeat CPU 0 instructions: 110000000 cycles: 49982402 heartbeat IPC: 0.790441 cumulative IPC: 0.790441 (Simulation time: 0 hr 9 min 4 sec) 
Heartbeat CPU 0 instructions: 120000000 cycles: 62889027 heartbeat IPC: 0.774796 cumulative IPC: 0.78254 (Simulation time: 0 hr 9 min 39 sec) 
Heartbeat CPU 0 instructions: 130000003 cycles: 75033051 heartbeat IPC: 0.823451 cumulative IPC: 0.795718 (Simulation time: 0 hr 10 min 15 sec) 
Heartbeat CPU 0 instructions: 140000000 cycles: 87644321 heartbeat IPC: 0.792941 cumulative IPC: 0.795022 (Simulation time: 0 hr 10 min 53 sec) 
Heartbeat CPU 0 instructions: 150000000 cycles: 100221752 heartbeat IPC: 0.795075 cumulative IPC: 0.795032 (Simulation time: 0 hr 11 min 28 sec) 
Heartbeat CPU 0 instructions: 160000001 cycles: 112887139 heartbeat IPC: 0.789554 cumulative IPC: 0.794114 (Simulation time: 0 hr 12 min 10 sec) 
Heartbeat CPU 0 instructions: 170000000 cycles: 125542164 heartbeat IPC: 0.7902 cumulative IPC: 0.793552 (Simulation time: 0 hr 12 min 51 sec) 
Heartbeat CPU 0 instructions: 180000003 cycles: 138157718 heartbeat IPC: 0.792673 cumulative IPC: 0.793442 (Simulation time: 0 hr 13 min 30 sec) 
Heartbeat CPU 0 instructions: 190000000 cycles: 150908418 heartbeat IPC: 0.78427 cumulative IPC: 0.792413 (Simulation time: 0 hr 14 min 18 sec) 
Heartbeat CPU 0 instructions: 200000002 cycles: 163506543 heartbeat IPC: 0.793769 cumulative IPC: 0.792548 (Simulation time: 0 hr 15 min 0 sec) 
Finished CPU 0 instructions: 100000003 cycles: 126175308 cumulative IPC: 0.792548 (Simulation time: 0 hr 15 min 0 sec) 

ChampSim completed all CPUs

Region of Interest Statistics

CPU 0 cumulative IPC: 0.792548 instructions: 100000003 cycles: 126175308
L1D TOTAL     ACCESS:   26889769  HIT:   26833145  MISS:      56624
L1D LOAD      ACCESS:   19311519  HIT:   19264801  MISS:      46718
L1D RFO       ACCESS:    7578250  HIT:    7568344  MISS:       9906
L1D PREFETCH  ACCESS:          0  HIT:          0  MISS:          0
L1D WRITEBACK ACCESS:          0  HIT:          0  MISS:          0
L1D PREFETCH  REQUESTED:          0  ISSUED:          0  USEFUL:          0  USELESS:          0
L1D AVERAGE MISS LATENCY: 123.972 cycles
L1I TOTAL     ACCESS:   18637900  HIT:   18636613  MISS:       1287
L1I LOAD      ACCESS:   18637900  HIT:   18636613  MISS:       1287
L1I RFO       ACCESS:          0  HIT:          0  MISS:          0
L1I PREFETCH  ACCESS:          0  HIT:          0  MISS:          0
L1I WRITEBACK ACCESS:          0  HIT:          0  MISS:          0
L1I PREFETCH  REQUESTED:          0  ISSUED:          0  USEFUL:          0  USELESS:          0
L1I AVERAGE MISS LATENCY: 17.791 cycles
L2C TOTAL     ACCESS:     145867  HIT:      80463  MISS:      65404
L2C LOAD      ACCESS:      48005  HIT:      15343  MISS:      32662
L2C RFO       ACCESS:       9899  HIT:       9404  MISS:        495
L2C PREFETCH  ACCESS:      47448  HIT:      15464  MISS:      31984
L2C WRITEBACK ACCESS:      40515  HIT:      40252  MISS:        263
L2C PREFETCH  REQUESTED:      48005  ISSUED:      47470  USEFUL:       2059  USELESS:      29879
L2C AVERAGE MISS LATENCY: 185.6 cycles
LLC TOTAL     ACCESS:      97245  HIT:      35877  MISS:      61368
LLC LOAD      ACCESS:      32648  HIT:       2005  MISS:      30643
LLC RFO       ACCESS:        495  HIT:        367  MISS:        128
LLC PREFETCH  ACCESS:      31998  HIT:       2007  MISS:      29991
LLC WRITEBACK ACCESS:      32104  HIT:      31498  MISS:        606
LLC PREFETCH  REQUESTED:          0  ISSUED:          0  USEFUL:        408  USELESS:      29692
LLC AVERAGE MISS LATENCY: 165.54 cycles
Major fault: 0 Minor fault: 19008
CPU 0 L2C next line prefetcher final stats

DRAM Statistics
 CHANNEL 0
 RQ ROW_BUFFER_HIT:       2610  ROW_BUFFER_MISS:      58152
 DBUS_CONGESTED:       2155
 WQ ROW_BUFFER_HIT:        764  ROW_BUFFER_MISS:      29856  FULL:          0

 AVG_CONGESTED_CYCLE: 6

CPU 0 Branch Prediction Accuracy: 87.3178% MPKI: 28.0387 Average ROB Occupancy at Mispredict: 16.2772

Branch types
NOT_BRANCH: 77890950 77.8909%
BRANCH_DIRECT_JUMP: 1388890 1.38889%
BRANCH_INDIRECT: 579611 0.579611%
BRANCH_CONDITIONAL: 18135904 18.1359%
BRANCH_DIRECT_CALL: 710066 0.710066%
BRANCH_INDIRECT_CALL: 292097 0.292097%
BRANCH_RETURN: 1002161 1.00216%
BRANCH_OTHER: 0 0%

