
*** ChampSim Multicore Out-of-Order Simulator ***

Warmup Instructions: 100000000
Simulation Instructions: 100000000
Number of CPUs: 1
LLC sets: 2048
LLC ways: 16
Off-chip DRAM Size: 4096 MB Channels: 1 Width: 64-bit Data Rate: 3200 MT/s

CPU 0 runs /home/sai/ChampSim/traces/603.bwaves_s-1080B.champsimtrace.xz
CPU 0 Bimodal branch predictor
CPU 0 L2C next line prefetcher
Initialize DRRIP state
Assign rand_sets[0]: 454  LLC: 2048
rand_sets[0]: 454
Assign rand_sets[1]: 1662  LLC: 2048
rand_sets[1]: 1662
Assign rand_sets[2]: 1921  LLC: 2048
rand_sets[2]: 1921
Assign rand_sets[3]: 1131  LLC: 2048
rand_sets[3]: 1131
Assign rand_sets[4]: 331  LLC: 2048
rand_sets[4]: 331
Assign rand_sets[5]: 1531  LLC: 2048
rand_sets[5]: 1531
Assign rand_sets[6]: 482  LLC: 2048
rand_sets[6]: 482
Assign rand_sets[7]: 1275  LLC: 2048
rand_sets[7]: 1275
Assign rand_sets[8]: 1876  LLC: 2048
rand_sets[8]: 1876
Assign rand_sets[9]: 2038  LLC: 2048
rand_sets[9]: 2038
Assign rand_sets[10]: 701  LLC: 2048
rand_sets[10]: 701
Assign rand_sets[11]: 479  LLC: 2048
rand_sets[11]: 479
Assign rand_sets[12]: 892  LLC: 2048
rand_sets[12]: 892
Assign rand_sets[13]: 1820  LLC: 2048
rand_sets[13]: 1820
Assign rand_sets[14]: 1505  LLC: 2048
rand_sets[14]: 1505
Assign rand_sets[15]: 1159  LLC: 2048
rand_sets[15]: 1159
Assign rand_sets[16]: 513  LLC: 2048
rand_sets[16]: 513
Assign rand_sets[17]: 703  LLC: 2048
rand_sets[17]: 703
Assign rand_sets[18]: 561  LLC: 2048
rand_sets[18]: 561
Assign rand_sets[19]: 990  LLC: 2048
rand_sets[19]: 990
Assign rand_sets[20]: 342  LLC: 2048
rand_sets[20]: 342
Assign rand_sets[21]: 882  LLC: 2048
rand_sets[21]: 882
Assign rand_sets[22]: 15  LLC: 2048
rand_sets[22]: 15
Assign rand_sets[23]: 71  LLC: 2048
rand_sets[23]: 71
Assign rand_sets[24]: 1127  LLC: 2048
rand_sets[24]: 1127
Assign rand_sets[25]: 1382  LLC: 2048
rand_sets[25]: 1382
Assign rand_sets[26]: 647  LLC: 2048
rand_sets[26]: 647
Assign rand_sets[27]: 857  LLC: 2048
rand_sets[27]: 857
Assign rand_sets[28]: 1450  LLC: 2048
rand_sets[28]: 1450
Assign rand_sets[29]: 1160  LLC: 2048
rand_sets[29]: 1160
Assign rand_sets[30]: 1852  LLC: 2048
rand_sets[30]: 1852
Assign rand_sets[31]: 1881  LLC: 2048
rand_sets[31]: 1881
Assign rand_sets[32]: 1770  LLC: 2048
rand_sets[32]: 1770
Assign rand_sets[33]: 1622  LLC: 2048
rand_sets[33]: 1622
Assign rand_sets[34]: 275  LLC: 2048
rand_sets[34]: 275
Assign rand_sets[35]: 635  LLC: 2048
rand_sets[35]: 635
Assign rand_sets[36]: 466  LLC: 2048
rand_sets[36]: 466
Assign rand_sets[37]: 1413  LLC: 2048
rand_sets[37]: 1413
Assign rand_sets[38]: 417  LLC: 2048
rand_sets[38]: 417
Assign rand_sets[39]: 472  LLC: 2048
rand_sets[39]: 472
Assign rand_sets[40]: 1340  LLC: 2048
rand_sets[40]: 1340
Assign rand_sets[41]: 852  LLC: 2048
rand_sets[41]: 852
Assign rand_sets[42]: 1365  LLC: 2048
rand_sets[42]: 1365
Assign rand_sets[43]: 47  LLC: 2048
rand_sets[43]: 47
Assign rand_sets[44]: 823  LLC: 2048
rand_sets[44]: 823
Assign rand_sets[45]: 686  LLC: 2048
rand_sets[45]: 686
Assign rand_sets[46]: 1637  LLC: 2048
rand_sets[46]: 1637
Assign rand_sets[47]: 1115  LLC: 2048
rand_sets[47]: 1115
Assign rand_sets[48]: 986  LLC: 2048
rand_sets[48]: 986
Assign rand_sets[49]: 258  LLC: 2048
rand_sets[49]: 258
Assign rand_sets[50]: 633  LLC: 2048
rand_sets[50]: 633
Assign rand_sets[51]: 920  LLC: 2048
rand_sets[51]: 920
Assign rand_sets[52]: 204  LLC: 2048
rand_sets[52]: 204
Assign rand_sets[53]: 227  LLC: 2048
rand_sets[53]: 227
Assign rand_sets[54]: 1818  LLC: 2048
rand_sets[54]: 1818
Assign rand_sets[55]: 886  LLC: 2048
rand_sets[55]: 886
Assign rand_sets[56]: 1422  LLC: 2048
rand_sets[56]: 1422
Assign rand_sets[57]: 607  LLC: 2048
rand_sets[57]: 607
Assign rand_sets[58]: 217  LLC: 2048
rand_sets[58]: 217
Assign rand_sets[59]: 1945  LLC: 2048
rand_sets[59]: 1945
Assign rand_sets[60]: 143  LLC: 2048
rand_sets[60]: 143
Assign rand_sets[61]: 1311  LLC: 2048
rand_sets[61]: 1311
Assign rand_sets[62]: 319  LLC: 2048
rand_sets[62]: 319
Assign rand_sets[63]: 1846  LLC: 2048
rand_sets[63]: 1846
Heartbeat CPU 0 instructions: 10000001 cycles: 3445917 heartbeat IPC: 2.90199 cumulative IPC: 2.90199 (Simulation time: 0 hr 0 min 49 sec) 
Heartbeat CPU 0 instructions: 20000000 cycles: 6899555 heartbeat IPC: 2.8955 cumulative IPC: 2.89874 (Simulation time: 0 hr 1 min 38 sec) 
Heartbeat CPU 0 instructions: 30000003 cycles: 10284266 heartbeat IPC: 2.95446 cumulative IPC: 2.91708 (Simulation time: 0 hr 2 min 21 sec) 
Heartbeat CPU 0 instructions: 40000000 cycles: 13666815 heartbeat IPC: 2.95635 cumulative IPC: 2.9268 (Simulation time: 0 hr 2 min 58 sec) 
Heartbeat CPU 0 instructions: 50000002 cycles: 17052991 heartbeat IPC: 2.95318 cumulative IPC: 2.93204 (Simulation time: 0 hr 3 min 38 sec) 
Heartbeat CPU 0 instructions: 60000001 cycles: 20467215 heartbeat IPC: 2.92892 cumulative IPC: 2.93152 (Simulation time: 0 hr 4 min 28 sec) 
Heartbeat CPU 0 instructions: 70000000 cycles: 23879719 heartbeat IPC: 2.9304 cumulative IPC: 2.93136 (Simulation time: 0 hr 5 min 18 sec) 
Heartbeat CPU 0 instructions: 80000000 cycles: 27290996 heartbeat IPC: 2.93145 cumulative IPC: 2.93137 (Simulation time: 0 hr 6 min 6 sec) 
Heartbeat CPU 0 instructions: 90000001 cycles: 30703050 heartbeat IPC: 2.93079 cumulative IPC: 2.9313 (Simulation time: 0 hr 6 min 52 sec) 
Heartbeat CPU 0 instructions: 100000003 cycles: 34105670 heartbeat IPC: 2.93891 cumulative IPC: 2.93206 (Simulation time: 0 hr 7 min 28 sec) 

Warmup complete CPU 0 instructions: 100000003 cycles: 34105670 (Simulation time: 0 hr 7 min 28 sec) 

Heartbeat CPU 0 instructions: 110000000 cycles: 42431639 heartbeat IPC: 1.20106 cumulative IPC: 1.20106 (Simulation time: 0 hr 8 min 6 sec) 
Heartbeat CPU 0 instructions: 120000000 cycles: 50774227 heartbeat IPC: 1.19867 cumulative IPC: 1.19986 (Simulation time: 0 hr 8 min 44 sec) 
Heartbeat CPU 0 instructions: 130000001 cycles: 59118245 heartbeat IPC: 1.19846 cumulative IPC: 1.1994 (Simulation time: 0 hr 9 min 20 sec) 
Heartbeat CPU 0 instructions: 140000002 cycles: 67460853 heartbeat IPC: 1.19867 cumulative IPC: 1.19921 (Simulation time: 0 hr 9 min 57 sec) 
Heartbeat CPU 0 instructions: 150000003 cycles: 75789575 heartbeat IPC: 1.20066 cumulative IPC: 1.1995 (Simulation time: 0 hr 10 min 38 sec) 
Heartbeat CPU 0 instructions: 160000002 cycles: 84105023 heartbeat IPC: 1.20258 cumulative IPC: 1.20002 (Simulation time: 0 hr 11 min 13 sec) 
Heartbeat CPU 0 instructions: 170000000 cycles: 92419691 heartbeat IPC: 1.20269 cumulative IPC: 1.2004 (Simulation time: 0 hr 11 min 49 sec) 
Heartbeat CPU 0 instructions: 180000003 cycles: 100732658 heartbeat IPC: 1.20294 cumulative IPC: 1.20071 (Simulation time: 0 hr 12 min 24 sec) 
Heartbeat CPU 0 instructions: 190000003 cycles: 109042561 heartbeat IPC: 1.20338 cumulative IPC: 1.20101 (Simulation time: 0 hr 13 min 4 sec) 
Heartbeat CPU 0 instructions: 200000001 cycles: 117346598 heartbeat IPC: 1.20423 cumulative IPC: 1.20133 (Simulation time: 0 hr 13 min 41 sec) 
Finished CPU 0 instructions: 100000001 cycles: 83240934 cumulative IPC: 1.20133 (Simulation time: 0 hr 13 min 41 sec) 

ChampSim completed all CPUs

Region of Interest Statistics

CPU 0 cumulative IPC: 1.20133 instructions: 100000001 cycles: 83240934
L1D TOTAL     ACCESS:   19619305  HIT:   19611943  MISS:       7362
L1D LOAD      ACCESS:   16245452  HIT:   16244685  MISS:        767
L1D RFO       ACCESS:    3373853  HIT:    3367258  MISS:       6595
L1D PREFETCH  ACCESS:          0  HIT:          0  MISS:          0
L1D WRITEBACK ACCESS:          0  HIT:          0  MISS:          0
L1D PREFETCH  REQUESTED:          0  ISSUED:          0  USEFUL:          0  USELESS:          0
L1D AVERAGE MISS LATENCY: 211.8 cycles
L1I TOTAL     ACCESS:   21550850  HIT:   21550850  MISS:          0
L1I LOAD      ACCESS:   21550850  HIT:   21550850  MISS:          0
L1I RFO       ACCESS:          0  HIT:          0  MISS:          0
L1I PREFETCH  ACCESS:          0  HIT:          0  MISS:          0
L1I WRITEBACK ACCESS:          0  HIT:          0  MISS:          0
L1I PREFETCH  REQUESTED:          0  ISSUED:          0  USEFUL:          0  USELESS:          0
L1I AVERAGE MISS LATENCY: -nan cycles
L2C TOTAL     ACCESS:      14716  HIT:       7475  MISS:       7241
L2C LOAD      ACCESS:        767  HIT:        754  MISS:         13
L2C RFO       ACCESS:       6595  HIT:         19  MISS:       6576
L2C PREFETCH  ACCESS:        757  HIT:        106  MISS:        651
L2C WRITEBACK ACCESS:       6597  HIT:       6596  MISS:          1
L2C PREFETCH  REQUESTED:        767  ISSUED:        757  USEFUL:        648  USELESS:         16
L2C AVERAGE MISS LATENCY: 219.351 cycles
LLC TOTAL     ACCESS:      13781  HIT:       6446  MISS:       7335
LLC LOAD      ACCESS:         13  HIT:          3  MISS:         10
LLC RFO       ACCESS:       6576  HIT:          0  MISS:       6576
LLC PREFETCH  ACCESS:        651  HIT:          3  MISS:        648
LLC WRITEBACK ACCESS:       6541  HIT:       6440  MISS:        101
LLC PREFETCH  REQUESTED:          0  ISSUED:          0  USEFUL:          1  USELESS:        634
LLC AVERAGE MISS LATENCY: 185.948 cycles
Major fault: 0 Minor fault: 1317
CPU 0 L2C next line prefetcher final stats

DRAM Statistics
 CHANNEL 0
 RQ ROW_BUFFER_HIT:        558  ROW_BUFFER_MISS:       6676
 DBUS_CONGESTED:       5299
 WQ ROW_BUFFER_HIT:       3805  ROW_BUFFER_MISS:       2775  FULL:          0

 AVG_CONGESTED_CYCLE: 6

CPU 0 Branch Prediction Accuracy: 87.5647% MPKI: 18.0781 Average ROB Occupancy at Mispredict: 19.9963

Branch types
NOT_BRANCH: 85462310 85.4623%
BRANCH_DIRECT_JUMP: 1074199 1.0742%
BRANCH_INDIRECT: 83005 0.083005%
BRANCH_CONDITIONAL: 13134765 13.1348%
BRANCH_DIRECT_CALL: 122900 0.1229%
BRANCH_INDIRECT_CALL: 0 0%
BRANCH_RETURN: 122901 0.122901%
BRANCH_OTHER: 0 0%

