
*** ChampSim Multicore Out-of-Order Simulator ***

Warmup Instructions: 100000000
Simulation Instructions: 100000000
Number of CPUs: 1
LLC sets: 2048
LLC ways: 16
Off-chip DRAM Size: 4096 MB Channels: 1 Width: 64-bit Data Rate: 3200 MT/s

CPU 0 runs /home/sai/ChampSim/traces/625.x264_s-20B.champsimtrace.xz
CPU 0 Bimodal branch predictor
CPU 0 L2C next line prefetcher
Initialize DRRIP state
Assign rand_sets[0]: 454  LLC: 2048
rand_sets[0]: 454
Assign rand_sets[1]: 1662  LLC: 2048
rand_sets[1]: 1662
Assign rand_sets[2]: 1921  LLC: 2048
rand_sets[2]: 1921
Assign rand_sets[3]: 1131  LLC: 2048
rand_sets[3]: 1131
Assign rand_sets[4]: 331  LLC: 2048
rand_sets[4]: 331
Assign rand_sets[5]: 1531  LLC: 2048
rand_sets[5]: 1531
Assign rand_sets[6]: 482  LLC: 2048
rand_sets[6]: 482
Assign rand_sets[7]: 1275  LLC: 2048
rand_sets[7]: 1275
Assign rand_sets[8]: 1876  LLC: 2048
rand_sets[8]: 1876
Assign rand_sets[9]: 2038  LLC: 2048
rand_sets[9]: 2038
Assign rand_sets[10]: 701  LLC: 2048
rand_sets[10]: 701
Assign rand_sets[11]: 479  LLC: 2048
rand_sets[11]: 479
Assign rand_sets[12]: 892  LLC: 2048
rand_sets[12]: 892
Assign rand_sets[13]: 1820  LLC: 2048
rand_sets[13]: 1820
Assign rand_sets[14]: 1505  LLC: 2048
rand_sets[14]: 1505
Assign rand_sets[15]: 1159  LLC: 2048
rand_sets[15]: 1159
Assign rand_sets[16]: 513  LLC: 2048
rand_sets[16]: 513
Assign rand_sets[17]: 703  LLC: 2048
rand_sets[17]: 703
Assign rand_sets[18]: 561  LLC: 2048
rand_sets[18]: 561
Assign rand_sets[19]: 990  LLC: 2048
rand_sets[19]: 990
Assign rand_sets[20]: 342  LLC: 2048
rand_sets[20]: 342
Assign rand_sets[21]: 882  LLC: 2048
rand_sets[21]: 882
Assign rand_sets[22]: 15  LLC: 2048
rand_sets[22]: 15
Assign rand_sets[23]: 71  LLC: 2048
rand_sets[23]: 71
Assign rand_sets[24]: 1127  LLC: 2048
rand_sets[24]: 1127
Assign rand_sets[25]: 1382  LLC: 2048
rand_sets[25]: 1382
Assign rand_sets[26]: 647  LLC: 2048
rand_sets[26]: 647
Assign rand_sets[27]: 857  LLC: 2048
rand_sets[27]: 857
Assign rand_sets[28]: 1450  LLC: 2048
rand_sets[28]: 1450
Assign rand_sets[29]: 1160  LLC: 2048
rand_sets[29]: 1160
Assign rand_sets[30]: 1852  LLC: 2048
rand_sets[30]: 1852
Assign rand_sets[31]: 1881  LLC: 2048
rand_sets[31]: 1881
Assign rand_sets[32]: 1770  LLC: 2048
rand_sets[32]: 1770
Assign rand_sets[33]: 1622  LLC: 2048
rand_sets[33]: 1622
Assign rand_sets[34]: 275  LLC: 2048
rand_sets[34]: 275
Assign rand_sets[35]: 635  LLC: 2048
rand_sets[35]: 635
Assign rand_sets[36]: 466  LLC: 2048
rand_sets[36]: 466
Assign rand_sets[37]: 1413  LLC: 2048
rand_sets[37]: 1413
Assign rand_sets[38]: 417  LLC: 2048
rand_sets[38]: 417
Assign rand_sets[39]: 472  LLC: 2048
rand_sets[39]: 472
Assign rand_sets[40]: 1340  LLC: 2048
rand_sets[40]: 1340
Assign rand_sets[41]: 852  LLC: 2048
rand_sets[41]: 852
Assign rand_sets[42]: 1365  LLC: 2048
rand_sets[42]: 1365
Assign rand_sets[43]: 47  LLC: 2048
rand_sets[43]: 47
Assign rand_sets[44]: 823  LLC: 2048
rand_sets[44]: 823
Assign rand_sets[45]: 686  LLC: 2048
rand_sets[45]: 686
Assign rand_sets[46]: 1637  LLC: 2048
rand_sets[46]: 1637
Assign rand_sets[47]: 1115  LLC: 2048
rand_sets[47]: 1115
Assign rand_sets[48]: 986  LLC: 2048
rand_sets[48]: 986
Assign rand_sets[49]: 258  LLC: 2048
rand_sets[49]: 258
Assign rand_sets[50]: 633  LLC: 2048
rand_sets[50]: 633
Assign rand_sets[51]: 920  LLC: 2048
rand_sets[51]: 920
Assign rand_sets[52]: 204  LLC: 2048
rand_sets[52]: 204
Assign rand_sets[53]: 227  LLC: 2048
rand_sets[53]: 227
Assign rand_sets[54]: 1818  LLC: 2048
rand_sets[54]: 1818
Assign rand_sets[55]: 886  LLC: 2048
rand_sets[55]: 886
Assign rand_sets[56]: 1422  LLC: 2048
rand_sets[56]: 1422
Assign rand_sets[57]: 607  LLC: 2048
rand_sets[57]: 607
Assign rand_sets[58]: 217  LLC: 2048
rand_sets[58]: 217
Assign rand_sets[59]: 1945  LLC: 2048
rand_sets[59]: 1945
Assign rand_sets[60]: 143  LLC: 2048
rand_sets[60]: 143
Assign rand_sets[61]: 1311  LLC: 2048
rand_sets[61]: 1311
Assign rand_sets[62]: 319  LLC: 2048
rand_sets[62]: 319
Assign rand_sets[63]: 1846  LLC: 2048
rand_sets[63]: 1846
Heartbeat CPU 0 instructions: 10000002 cycles: 3226453 heartbeat IPC: 3.09938 cumulative IPC: 3.09938 (Simulation time: 0 hr 0 min 51 sec) 
Heartbeat CPU 0 instructions: 20000002 cycles: 6562438 heartbeat IPC: 2.99762 cumulative IPC: 3.04765 (Simulation time: 0 hr 1 min 41 sec) 
Heartbeat CPU 0 instructions: 30000001 cycles: 9903163 heartbeat IPC: 2.99336 cumulative IPC: 3.02934 (Simulation time: 0 hr 2 min 26 sec) 
Heartbeat CPU 0 instructions: 40000001 cycles: 13243925 heartbeat IPC: 2.99333 cumulative IPC: 3.02025 (Simulation time: 0 hr 3 min 24 sec) 
Heartbeat CPU 0 instructions: 50000001 cycles: 16582100 heartbeat IPC: 2.99565 cumulative IPC: 3.0153 (Simulation time: 0 hr 4 min 23 sec) 
Heartbeat CPU 0 instructions: 60000000 cycles: 19922840 heartbeat IPC: 2.99335 cumulative IPC: 3.01162 (Simulation time: 0 hr 5 min 21 sec) 
Heartbeat CPU 0 instructions: 70000003 cycles: 23265145 heartbeat IPC: 2.99195 cumulative IPC: 3.00879 (Simulation time: 0 hr 6 min 11 sec) 
Heartbeat CPU 0 instructions: 80000000 cycles: 26608694 heartbeat IPC: 2.99083 cumulative IPC: 3.00654 (Simulation time: 0 hr 6 min 48 sec) 
Heartbeat CPU 0 instructions: 90000001 cycles: 30166689 heartbeat IPC: 2.81057 cumulative IPC: 2.98342 (Simulation time: 0 hr 7 min 32 sec) 
Heartbeat CPU 0 instructions: 100000002 cycles: 33779775 heartbeat IPC: 2.76772 cumulative IPC: 2.96035 (Simulation time: 0 hr 8 min 24 sec) 

Warmup complete CPU 0 instructions: 100000002 cycles: 33779775 (Simulation time: 0 hr 8 min 24 sec) 

Heartbeat CPU 0 instructions: 110000000 cycles: 40238852 heartbeat IPC: 1.54821 cumulative IPC: 1.54821 (Simulation time: 0 hr 8 min 51 sec) 
Heartbeat CPU 0 instructions: 120000002 cycles: 46720993 heartbeat IPC: 1.5427 cumulative IPC: 1.54545 (Simulation time: 0 hr 9 min 21 sec) 
Heartbeat CPU 0 instructions: 130000000 cycles: 53198870 heartbeat IPC: 1.54372 cumulative IPC: 1.54487 (Simulation time: 0 hr 9 min 52 sec) 
Heartbeat CPU 0 instructions: 140000001 cycles: 59678276 heartbeat IPC: 1.54335 cumulative IPC: 1.54449 (Simulation time: 0 hr 10 min 23 sec) 
Heartbeat CPU 0 instructions: 150000003 cycles: 66137953 heartbeat IPC: 1.54807 cumulative IPC: 1.5452 (Simulation time: 0 hr 10 min 59 sec) 
Heartbeat CPU 0 instructions: 160000000 cycles: 72597947 heartbeat IPC: 1.54799 cumulative IPC: 1.54567 (Simulation time: 0 hr 11 min 31 sec) 
Heartbeat CPU 0 instructions: 170000000 cycles: 79063631 heartbeat IPC: 1.54663 cumulative IPC: 1.5458 (Simulation time: 0 hr 12 min 3 sec) 
Heartbeat CPU 0 instructions: 180000000 cycles: 85526396 heartbeat IPC: 1.54733 cumulative IPC: 1.54599 (Simulation time: 0 hr 12 min 36 sec) 
Heartbeat CPU 0 instructions: 190000000 cycles: 91986243 heartbeat IPC: 1.54802 cumulative IPC: 1.54622 (Simulation time: 0 hr 13 min 11 sec) 
Heartbeat CPU 0 instructions: 200000000 cycles: 98471242 heartbeat IPC: 1.54202 cumulative IPC: 1.5458 (Simulation time: 0 hr 13 min 46 sec) 
Finished CPU 0 instructions: 100000000 cycles: 64691469 cumulative IPC: 1.5458 (Simulation time: 0 hr 13 min 46 sec) 

ChampSim completed all CPUs

Region of Interest Statistics

CPU 0 cumulative IPC: 1.5458 instructions: 100000000 cycles: 64691469
L1D TOTAL     ACCESS:   15456434  HIT:   15402077  MISS:      54357
L1D LOAD      ACCESS:    8369342  HIT:    8323591  MISS:      45751
L1D RFO       ACCESS:    7087092  HIT:    7078486  MISS:       8606
L1D PREFETCH  ACCESS:          0  HIT:          0  MISS:          0
L1D WRITEBACK ACCESS:          0  HIT:          0  MISS:          0
L1D PREFETCH  REQUESTED:          0  ISSUED:          0  USEFUL:          0  USELESS:          0
L1D AVERAGE MISS LATENCY: 134.463 cycles
L1I TOTAL     ACCESS:   16025808  HIT:   16025402  MISS:        406
L1I LOAD      ACCESS:   16025808  HIT:   16025402  MISS:        406
L1I RFO       ACCESS:          0  HIT:          0  MISS:          0
L1I PREFETCH  ACCESS:          0  HIT:          0  MISS:          0
L1I WRITEBACK ACCESS:          0  HIT:          0  MISS:          0
L1I PREFETCH  REQUESTED:          0  ISSUED:          0  USEFUL:          0  USELESS:          0
L1I AVERAGE MISS LATENCY: 140.291 cycles
L2C TOTAL     ACCESS:     107842  HIT:      50442  MISS:      57400
L2C LOAD      ACCESS:      46157  HIT:      25008  MISS:      21149
L2C RFO       ACCESS:       8606  HIT:        472  MISS:       8134
L2C PREFETCH  ACCESS:      44126  HIT:      16027  MISS:      28099
L2C WRITEBACK ACCESS:       8953  HIT:       8935  MISS:         18
L2C PREFETCH  REQUESTED:      46157  ISSUED:      45430  USEFUL:      25093  USELESS:       2681
L2C AVERAGE MISS LATENCY: 169.702 cycles
LLC TOTAL     ACCESS:      69583  HIT:      28519  MISS:      41064
LLC LOAD      ACCESS:      20915  HIT:       2979  MISS:      17936
LLC RFO       ACCESS:       7172  HIT:          2  MISS:       7170
LLC PREFETCH  ACCESS:      29295  HIT:      13794  MISS:      15501
LLC WRITEBACK ACCESS:      12201  HIT:      11744  MISS:        457
LLC PREFETCH  REQUESTED:          0  ISSUED:          0  USEFUL:         23  USELESS:      17631
LLC AVERAGE MISS LATENCY: 199.585 cycles
Major fault: 0 Minor fault: 4558
CPU 0 L2C next line prefetcher final stats

DRAM Statistics
 CHANNEL 0
 RQ ROW_BUFFER_HIT:      16382  ROW_BUFFER_MISS:      24219
 DBUS_CONGESTED:      19243
 WQ ROW_BUFFER_HIT:       3159  ROW_BUFFER_MISS:      18703  FULL:          0

 AVG_CONGESTED_CYCLE: 6

CPU 0 Branch Prediction Accuracy: 89.1606% MPKI: 3.46502 Average ROB Occupancy at Mispredict: 60.226

Branch types
NOT_BRANCH: 96802969 96.803%
BRANCH_DIRECT_JUMP: 47694 0.047694%
BRANCH_INDIRECT: 3716 0.003716%
BRANCH_CONDITIONAL: 2523990 2.52399%
BRANCH_DIRECT_CALL: 152189 0.152189%
BRANCH_INDIRECT_CALL: 158457 0.158457%
BRANCH_RETURN: 310639 0.310639%
BRANCH_OTHER: 0 0%

