Initialize SIGNATURE TABLE
ST_SET: 1
ST_WAY: 256
ST_TAG_BIT: 16
ST_TAG_MASK: ffff

Initialize PATTERN TABLE
PT_SET: 512
PT_WAY: 4
SIG_DELTA_BIT: 7
C_SIG_BIT: 4
C_DELTA_BIT: 4

Initialize PREFETCH FILTER
FILTER_SET: 1024

*** ChampSim Multicore Out-of-Order Simulator ***

Warmup Instructions: 100000000
Simulation Instructions: 100000000
Number of CPUs: 1
LLC sets: 2048
LLC ways: 16
Off-chip DRAM Size: 4096 MB Channels: 1 Width: 64-bit Data Rate: 3200 MT/s

CPU 0 runs /home/shubhayu/ChampSim/traces/458.sjeng-1088B.champsimtrace.xz
CPU 0 GSHARE branch predictor
CPU 0 L1I next line prefetcher
CPU 0 L1D next line prefetcher
Initialize DRRIP state
Assign rand_sets[0]: 454  LLC: 2048
rand_sets[0]: 454
Assign rand_sets[1]: 1662  LLC: 2048
rand_sets[1]: 1662
Assign rand_sets[2]: 1921  LLC: 2048
rand_sets[2]: 1921
Assign rand_sets[3]: 1131  LLC: 2048
rand_sets[3]: 1131
Assign rand_sets[4]: 331  LLC: 2048
rand_sets[4]: 331
Assign rand_sets[5]: 1531  LLC: 2048
rand_sets[5]: 1531
Assign rand_sets[6]: 482  LLC: 2048
rand_sets[6]: 482
Assign rand_sets[7]: 1275  LLC: 2048
rand_sets[7]: 1275
Assign rand_sets[8]: 1876  LLC: 2048
rand_sets[8]: 1876
Assign rand_sets[9]: 2038  LLC: 2048
rand_sets[9]: 2038
Assign rand_sets[10]: 701  LLC: 2048
rand_sets[10]: 701
Assign rand_sets[11]: 479  LLC: 2048
rand_sets[11]: 479
Assign rand_sets[12]: 892  LLC: 2048
rand_sets[12]: 892
Assign rand_sets[13]: 1820  LLC: 2048
rand_sets[13]: 1820
Assign rand_sets[14]: 1505  LLC: 2048
rand_sets[14]: 1505
Assign rand_sets[15]: 1159  LLC: 2048
rand_sets[15]: 1159
Assign rand_sets[16]: 513  LLC: 2048
rand_sets[16]: 513
Assign rand_sets[17]: 703  LLC: 2048
rand_sets[17]: 703
Assign rand_sets[18]: 561  LLC: 2048
rand_sets[18]: 561
Assign rand_sets[19]: 990  LLC: 2048
rand_sets[19]: 990
Assign rand_sets[20]: 342  LLC: 2048
rand_sets[20]: 342
Assign rand_sets[21]: 882  LLC: 2048
rand_sets[21]: 882
Assign rand_sets[22]: 15  LLC: 2048
rand_sets[22]: 15
Assign rand_sets[23]: 71  LLC: 2048
rand_sets[23]: 71
Assign rand_sets[24]: 1127  LLC: 2048
rand_sets[24]: 1127
Assign rand_sets[25]: 1382  LLC: 2048
rand_sets[25]: 1382
Assign rand_sets[26]: 647  LLC: 2048
rand_sets[26]: 647
Assign rand_sets[27]: 857  LLC: 2048
rand_sets[27]: 857
Assign rand_sets[28]: 1450  LLC: 2048
rand_sets[28]: 1450
Assign rand_sets[29]: 1160  LLC: 2048
rand_sets[29]: 1160
Assign rand_sets[30]: 1852  LLC: 2048
rand_sets[30]: 1852
Assign rand_sets[31]: 1881  LLC: 2048
rand_sets[31]: 1881
Assign rand_sets[32]: 1770  LLC: 2048
rand_sets[32]: 1770
Assign rand_sets[33]: 1622  LLC: 2048
rand_sets[33]: 1622
Assign rand_sets[34]: 275  LLC: 2048
rand_sets[34]: 275
Assign rand_sets[35]: 635  LLC: 2048
rand_sets[35]: 635
Assign rand_sets[36]: 466  LLC: 2048
rand_sets[36]: 466
Assign rand_sets[37]: 1413  LLC: 2048
rand_sets[37]: 1413
Assign rand_sets[38]: 417  LLC: 2048
rand_sets[38]: 417
Assign rand_sets[39]: 472  LLC: 2048
rand_sets[39]: 472
Assign rand_sets[40]: 1340  LLC: 2048
rand_sets[40]: 1340
Assign rand_sets[41]: 852  LLC: 2048
rand_sets[41]: 852
Assign rand_sets[42]: 1365  LLC: 2048
rand_sets[42]: 1365
Assign rand_sets[43]: 47  LLC: 2048
rand_sets[43]: 47
Assign rand_sets[44]: 823  LLC: 2048
rand_sets[44]: 823
Assign rand_sets[45]: 686  LLC: 2048
rand_sets[45]: 686
Assign rand_sets[46]: 1637  LLC: 2048
rand_sets[46]: 1637
Assign rand_sets[47]: 1115  LLC: 2048
rand_sets[47]: 1115
Assign rand_sets[48]: 986  LLC: 2048
rand_sets[48]: 986
Assign rand_sets[49]: 258  LLC: 2048
rand_sets[49]: 258
Assign rand_sets[50]: 633  LLC: 2048
rand_sets[50]: 633
Assign rand_sets[51]: 920  LLC: 2048
rand_sets[51]: 920
Assign rand_sets[52]: 204  LLC: 2048
rand_sets[52]: 204
Assign rand_sets[53]: 227  LLC: 2048
rand_sets[53]: 227
Assign rand_sets[54]: 1818  LLC: 2048
rand_sets[54]: 1818
Assign rand_sets[55]: 886  LLC: 2048
rand_sets[55]: 886
Assign rand_sets[56]: 1422  LLC: 2048
rand_sets[56]: 1422
Assign rand_sets[57]: 607  LLC: 2048
rand_sets[57]: 607
Assign rand_sets[58]: 217  LLC: 2048
rand_sets[58]: 217
Assign rand_sets[59]: 1945  LLC: 2048
rand_sets[59]: 1945
Assign rand_sets[60]: 143  LLC: 2048
rand_sets[60]: 143
Assign rand_sets[61]: 1311  LLC: 2048
rand_sets[61]: 1311
Assign rand_sets[62]: 319  LLC: 2048
rand_sets[62]: 319
Assign rand_sets[63]: 1846  LLC: 2048
rand_sets[63]: 1846
LLC Next Line Prefetcher
Heartbeat CPU 0 instructions: 10000001 cycles: 3745833 heartbeat IPC: 2.66963 cumulative IPC: 2.66963 (Simulation time: 0 hr 0 min 18 sec) 
Heartbeat CPU 0 instructions: 20000001 cycles: 7497807 heartbeat IPC: 2.66526 cumulative IPC: 2.66745 (Simulation time: 0 hr 0 min 35 sec) 
Heartbeat CPU 0 instructions: 30000001 cycles: 11230557 heartbeat IPC: 2.67899 cumulative IPC: 2.67128 (Simulation time: 0 hr 0 min 53 sec) 
Heartbeat CPU 0 instructions: 40000002 cycles: 14951779 heartbeat IPC: 2.68729 cumulative IPC: 2.67527 (Simulation time: 0 hr 1 min 10 sec) 
Heartbeat CPU 0 instructions: 50000000 cycles: 18682666 heartbeat IPC: 2.68033 cumulative IPC: 2.67628 (Simulation time: 0 hr 1 min 28 sec) 
Heartbeat CPU 0 instructions: 60000002 cycles: 22414693 heartbeat IPC: 2.67951 cumulative IPC: 2.67682 (Simulation time: 0 hr 1 min 45 sec) 
Heartbeat CPU 0 instructions: 70000002 cycles: 26136053 heartbeat IPC: 2.68719 cumulative IPC: 2.67829 (Simulation time: 0 hr 2 min 3 sec) 
Heartbeat CPU 0 instructions: 80000000 cycles: 29850334 heartbeat IPC: 2.69231 cumulative IPC: 2.68004 (Simulation time: 0 hr 2 min 21 sec) 
Heartbeat CPU 0 instructions: 90000003 cycles: 33589604 heartbeat IPC: 2.67432 cumulative IPC: 2.6794 (Simulation time: 0 hr 2 min 39 sec) 
Heartbeat CPU 0 instructions: 100000003 cycles: 37332052 heartbeat IPC: 2.67205 cumulative IPC: 2.67866 (Simulation time: 0 hr 2 min 56 sec) 

Warmup complete CPU 0 instructions: 100000003 cycles: 37332052 (Simulation time: 0 hr 2 min 56 sec) 

Heartbeat CPU 0 instructions: 110000000 cycles: 48607738 heartbeat IPC: 0.886864 cumulative IPC: 0.886864 (Simulation time: 0 hr 3 min 10 sec) 
Heartbeat CPU 0 instructions: 120000000 cycles: 60188140 heartbeat IPC: 0.863528 cumulative IPC: 0.87504 (Simulation time: 0 hr 3 min 22 sec) 
Heartbeat CPU 0 instructions: 130000003 cycles: 71240695 heartbeat IPC: 0.904768 cumulative IPC: 0.88473 (Simulation time: 0 hr 3 min 36 sec) 
Heartbeat CPU 0 instructions: 140000000 cycles: 82430537 heartbeat IPC: 0.893667 cumulative IPC: 0.886948 (Simulation time: 0 hr 3 min 51 sec) 
Heartbeat CPU 0 instructions: 150000000 cycles: 93638038 heartbeat IPC: 0.89226 cumulative IPC: 0.888005 (Simulation time: 0 hr 4 min 5 sec) 
Heartbeat CPU 0 instructions: 160000000 cycles: 104910395 heartbeat IPC: 0.887126 cumulative IPC: 0.887858 (Simulation time: 0 hr 5 min 21 sec) 
Heartbeat CPU 0 instructions: 170000000 cycles: 116242579 heartbeat IPC: 0.882442 cumulative IPC: 0.887081 (Simulation time: 0 hr 5 min 34 sec) 
Heartbeat CPU 0 instructions: 180000003 cycles: 127563432 heartbeat IPC: 0.883326 cumulative IPC: 0.886609 (Simulation time: 0 hr 5 min 51 sec) 
Heartbeat CPU 0 instructions: 190000000 cycles: 138949727 heartbeat IPC: 0.878249 cumulative IPC: 0.885673 (Simulation time: 0 hr 6 min 4 sec) 
Heartbeat CPU 0 instructions: 200000002 cycles: 150131086 heartbeat IPC: 0.894346 cumulative IPC: 0.886532 (Simulation time: 0 hr 6 min 17 sec) 
Finished CPU 0 instructions: 100000003 cycles: 112799035 cumulative IPC: 0.886532 (Simulation time: 0 hr 6 min 17 sec) 

ChampSim completed all CPUs

Region of Interest Statistics

CPU 0 cumulative IPC: 0.886532 instructions: 100000003 cycles: 112799035
L1D TOTAL     ACCESS:   45289456  HIT:   45156591  MISS:     132865
L1D LOAD      ACCESS:   18921024  HIT:   18866613  MISS:      54411
L1D RFO       ACCESS:    7521449  HIT:    7502817  MISS:      18632
L1D PREFETCH  ACCESS:   18846983  HIT:   18787161  MISS:      59822
L1D WRITEBACK ACCESS:          0  HIT:          0  MISS:          0
L1D PREFETCH  REQUESTED:   18921627  ISSUED:   18876371  USEFUL:       7981  USELESS:      51856
L1D AVERAGE MISS LATENCY: 106.348 cycles
L1I TOTAL     ACCESS:   18476663  HIT:   18474537  MISS:       2126
L1I LOAD      ACCESS:   18475388  HIT:   18473938  MISS:       1450
L1I RFO       ACCESS:          0  HIT:          0  MISS:          0
L1I PREFETCH  ACCESS:       1275  HIT:        599  MISS:        676
L1I WRITEBACK ACCESS:          0  HIT:          0  MISS:          0
L1I PREFETCH  REQUESTED:       1889  ISSUED:       1889  USEFUL:        368  USELESS:        305
L1I AVERAGE MISS LATENCY: 18.0042 cycles
L2C TOTAL     ACCESS:     210972  HIT:     146094  MISS:      64878
L2C LOAD      ACCESS:      55315  HIT:      22739  MISS:      32576
L2C RFO       ACCESS:      18591  HIT:      18272  MISS:        319
L2C PREFETCH  ACCESS:      83606  HIT:      51753  MISS:      31853
L2C WRITEBACK ACCESS:      53460  HIT:      53330  MISS:        130
L2C PREFETCH  REQUESTED:      77512  ISSUED:      77512  USEFUL:        259  USELESS:      31569
L2C AVERAGE MISS LATENCY: 186.393 cycles
LLC TOTAL     ACCESS:     150640  HIT:      50731  MISS:      99909
LLC LOAD      ACCESS:      32576  HIT:       1889  MISS:      30687
LLC RFO       ACCESS:        319  HIT:        221  MISS:         98
LLC PREFETCH  ACCESS:      85905  HIT:      17702  MISS:      68203
LLC WRITEBACK ACCESS:      31840  HIT:      30919  MISS:        921
LLC PREFETCH  REQUESTED:      79907  ISSUED:      78654  USEFUL:        595  USELESS:      64293
LLC AVERAGE MISS LATENCY: 164.905 cycles
Major fault: 0 Minor fault: 19008
CPU 0 L1I next line prefetcher final stats
CPU 0 L1D next line prefetcher final stats
LLC Next Line Prefetcher Final Stats: none

DRAM Statistics
 CHANNEL 0
 RQ ROW_BUFFER_HIT:       6178  ROW_BUFFER_MISS:      92810
 DBUS_CONGESTED:      42699
 WQ ROW_BUFFER_HIT:        703  ROW_BUFFER_MISS:      33371  FULL:          0

 AVG_CONGESTED_CYCLE: 3

CPU 0 Branch Prediction Accuracy: 91.2141% MPKI: 19.4246 Average ROB Occupancy at Mispredict: 20.7234

Branch types
NOT_BRANCH: 77890987 77.891%
BRANCH_DIRECT_JUMP: 1388892 1.38889%
BRANCH_INDIRECT: 579612 0.579612%
BRANCH_CONDITIONAL: 18135911 18.1359%
BRANCH_DIRECT_CALL: 710066 0.710066%
BRANCH_INDIRECT_CALL: 292097 0.292097%
BRANCH_RETURN: 1002162 1.00216%
BRANCH_OTHER: 0 0%

