Initialize SIGNATURE TABLE
ST_SET: 1
ST_WAY: 256
ST_TAG_BIT: 16
ST_TAG_MASK: ffff

Initialize PATTERN TABLE
PT_SET: 512
PT_WAY: 4
SIG_DELTA_BIT: 7
C_SIG_BIT: 4
C_DELTA_BIT: 4

Initialize PREFETCH FILTER
FILTER_SET: 1024

*** ChampSim Multicore Out-of-Order Simulator ***

Warmup Instructions: 100000000
Simulation Instructions: 100000000
Number of CPUs: 1
LLC sets: 2048
LLC ways: 16
Off-chip DRAM Size: 4096 MB Channels: 1 Width: 64-bit Data Rate: 3200 MT/s

CPU 0 runs /home/shubhayu/ChampSim/traces/458.sjeng-1088B.champsimtrace.xz
CPU 0 GSHARE branch predictor
CPU 0 L1I next line prefetcher
CPU 0 L1D next line prefetcher
Initialize SRRIP state
LLC Next Line Prefetcher
Heartbeat CPU 0 instructions: 10000001 cycles: 3745833 heartbeat IPC: 2.66963 cumulative IPC: 2.66963 (Simulation time: 0 hr 0 min 18 sec) 
Heartbeat CPU 0 instructions: 20000001 cycles: 7497807 heartbeat IPC: 2.66526 cumulative IPC: 2.66745 (Simulation time: 0 hr 0 min 36 sec) 
Heartbeat CPU 0 instructions: 30000001 cycles: 11230562 heartbeat IPC: 2.67899 cumulative IPC: 2.67128 (Simulation time: 0 hr 0 min 54 sec) 
Heartbeat CPU 0 instructions: 40000002 cycles: 14951792 heartbeat IPC: 2.68728 cumulative IPC: 2.67526 (Simulation time: 0 hr 1 min 12 sec) 
Heartbeat CPU 0 instructions: 50000000 cycles: 18682684 heartbeat IPC: 2.68032 cumulative IPC: 2.67628 (Simulation time: 0 hr 1 min 30 sec) 
Heartbeat CPU 0 instructions: 60000002 cycles: 22414703 heartbeat IPC: 2.67952 cumulative IPC: 2.67681 (Simulation time: 0 hr 1 min 48 sec) 
Heartbeat CPU 0 instructions: 70000002 cycles: 26136051 heartbeat IPC: 2.6872 cumulative IPC: 2.67829 (Simulation time: 0 hr 2 min 6 sec) 
Heartbeat CPU 0 instructions: 80000000 cycles: 29850337 heartbeat IPC: 2.69231 cumulative IPC: 2.68004 (Simulation time: 0 hr 2 min 24 sec) 
Heartbeat CPU 0 instructions: 90000003 cycles: 33589606 heartbeat IPC: 2.67432 cumulative IPC: 2.6794 (Simulation time: 0 hr 2 min 42 sec) 
Heartbeat CPU 0 instructions: 100000003 cycles: 37332055 heartbeat IPC: 2.67205 cumulative IPC: 2.67866 (Simulation time: 0 hr 3 min 0 sec) 

Warmup complete CPU 0 instructions: 100000003 cycles: 37332055 (Simulation time: 0 hr 3 min 0 sec) 

Heartbeat CPU 0 instructions: 110000000 cycles: 48612934 heartbeat IPC: 0.886455 cumulative IPC: 0.886455 (Simulation time: 0 hr 3 min 13 sec) 
Heartbeat CPU 0 instructions: 120000000 cycles: 60196025 heartbeat IPC: 0.863327 cumulative IPC: 0.874739 (Simulation time: 0 hr 3 min 26 sec) 
Heartbeat CPU 0 instructions: 130000003 cycles: 71248516 heartbeat IPC: 0.904774 cumulative IPC: 0.884526 (Simulation time: 0 hr 3 min 39 sec) 
Heartbeat CPU 0 instructions: 140000000 cycles: 82438468 heartbeat IPC: 0.893659 cumulative IPC: 0.886792 (Simulation time: 0 hr 3 min 52 sec) 
Heartbeat CPU 0 instructions: 150000000 cycles: 93649136 heartbeat IPC: 0.892008 cumulative IPC: 0.88783 (Simulation time: 0 hr 5 min 14 sec) 
Heartbeat CPU 0 instructions: 160000000 cycles: 104921700 heartbeat IPC: 0.88711 cumulative IPC: 0.88771 (Simulation time: 0 hr 5 min 27 sec) 
Heartbeat CPU 0 instructions: 170000000 cycles: 116253873 heartbeat IPC: 0.882443 cumulative IPC: 0.886954 (Simulation time: 0 hr 5 min 40 sec) 
Heartbeat CPU 0 instructions: 180000003 cycles: 127575849 heartbeat IPC: 0.883238 cumulative IPC: 0.886488 (Simulation time: 0 hr 5 min 53 sec) 
Heartbeat CPU 0 instructions: 190000000 cycles: 138960676 heartbeat IPC: 0.878362 cumulative IPC: 0.885577 (Simulation time: 0 hr 6 min 5 sec) 
Heartbeat CPU 0 instructions: 200000002 cycles: 150142104 heartbeat IPC: 0.89434 cumulative IPC: 0.886446 (Simulation time: 0 hr 6 min 18 sec) 
Finished CPU 0 instructions: 100000003 cycles: 112810050 cumulative IPC: 0.886446 (Simulation time: 0 hr 6 min 18 sec) 

ChampSim completed all CPUs

Region of Interest Statistics

CPU 0 cumulative IPC: 0.886446 instructions: 100000003 cycles: 112810050
L1D TOTAL     ACCESS:   45289351  HIT:   45156485  MISS:     132866
L1D LOAD      ACCESS:   18921025  HIT:   18866614  MISS:      54411
L1D RFO       ACCESS:    7521534  HIT:    7502902  MISS:      18632
L1D PREFETCH  ACCESS:   18846792  HIT:   18786969  MISS:      59823
L1D WRITEBACK ACCESS:          0  HIT:          0  MISS:          0
L1D PREFETCH  REQUESTED:   18921626  ISSUED:   18876372  USEFUL:       7981  USELESS:      51857
L1D AVERAGE MISS LATENCY: 106.588 cycles
L1I TOTAL     ACCESS:   18476680  HIT:   18474554  MISS:       2126
L1I LOAD      ACCESS:   18475404  HIT:   18473954  MISS:       1450
L1I RFO       ACCESS:          0  HIT:          0  MISS:          0
L1I PREFETCH  ACCESS:       1276  HIT:        600  MISS:        676
L1I WRITEBACK ACCESS:          0  HIT:          0  MISS:          0
L1I PREFETCH  REQUESTED:       1890  ISSUED:       1890  USEFUL:        368  USELESS:        305
L1I AVERAGE MISS LATENCY: 19.6185 cycles
L2C TOTAL     ACCESS:     210418  HIT:     145375  MISS:      65043
L2C LOAD      ACCESS:      55315  HIT:      22629  MISS:      32686
L2C RFO       ACCESS:      18593  HIT:      18247  MISS:        346
L2C PREFETCH  ACCESS:      83050  HIT:      51179  MISS:      31871
L2C WRITEBACK ACCESS:      53460  HIT:      53320  MISS:        140
L2C PREFETCH  REQUESTED:      72920  ISSUED:      72920  USEFUL:        232  USELESS:      31610
L2C AVERAGE MISS LATENCY: 186.479 cycles
LLC TOTAL     ACCESS:     150487  HIT:      46721  MISS:     103766
LLC LOAD      ACCESS:      32686  HIT:       1962  MISS:      30724
LLC RFO       ACCESS:        346  HIT:        285  MISS:         61
LLC PREFETCH  ACCESS:      85560  HIT:      17379  MISS:      68181
LLC WRITEBACK ACCESS:      31895  HIT:      27095  MISS:       4800
LLC PREFETCH  REQUESTED:      79555  ISSUED:      78348  USEFUL:        487  USELESS:      65001
LLC AVERAGE MISS LATENCY: 158.646 cycles
Major fault: 0 Minor fault: 19008
CPU 0 L1I next line prefetcher final stats
CPU 0 L1D next line prefetcher final stats
LLC Next Line Prefetcher Final Stats: none

DRAM Statistics
 CHANNEL 0
 RQ ROW_BUFFER_HIT:       6222  ROW_BUFFER_MISS:      92744
 DBUS_CONGESTED:      41281
 WQ ROW_BUFFER_HIT:        642  ROW_BUFFER_MISS:      32774  FULL:          0

 AVG_CONGESTED_CYCLE: 3

CPU 0 Branch Prediction Accuracy: 91.2141% MPKI: 19.4246 Average ROB Occupancy at Mispredict: 20.7291

Branch types
NOT_BRANCH: 77890987 77.891%
BRANCH_DIRECT_JUMP: 1388892 1.38889%
BRANCH_INDIRECT: 579612 0.579612%
BRANCH_CONDITIONAL: 18135911 18.1359%
BRANCH_DIRECT_CALL: 710066 0.710066%
BRANCH_INDIRECT_CALL: 292097 0.292097%
BRANCH_RETURN: 1002162 1.00216%
BRANCH_OTHER: 0 0%

