
*** ChampSim Multicore Out-of-Order Simulator ***

Warmup Instructions: 100000000
Simulation Instructions: 100000000
Number of CPUs: 1
LLC sets: 2048
LLC ways: 16
Off-chip DRAM Size: 4096 MB Channels: 1 Width: 64-bit Data Rate: 3200 MT/s

CPU 0 runs /home/shubhayu/ChampSim/traces/603.bwaves_s-1080B.champsimtrace.xz
CPU 0 Bimodal branch predictor
Initialize DRRIP state
Assign rand_sets[0]: 454  LLC: 2048
rand_sets[0]: 454
Assign rand_sets[1]: 1662  LLC: 2048
rand_sets[1]: 1662
Assign rand_sets[2]: 1921  LLC: 2048
rand_sets[2]: 1921
Assign rand_sets[3]: 1131  LLC: 2048
rand_sets[3]: 1131
Assign rand_sets[4]: 331  LLC: 2048
rand_sets[4]: 331
Assign rand_sets[5]: 1531  LLC: 2048
rand_sets[5]: 1531
Assign rand_sets[6]: 482  LLC: 2048
rand_sets[6]: 482
Assign rand_sets[7]: 1275  LLC: 2048
rand_sets[7]: 1275
Assign rand_sets[8]: 1876  LLC: 2048
rand_sets[8]: 1876
Assign rand_sets[9]: 2038  LLC: 2048
rand_sets[9]: 2038
Assign rand_sets[10]: 701  LLC: 2048
rand_sets[10]: 701
Assign rand_sets[11]: 479  LLC: 2048
rand_sets[11]: 479
Assign rand_sets[12]: 892  LLC: 2048
rand_sets[12]: 892
Assign rand_sets[13]: 1820  LLC: 2048
rand_sets[13]: 1820
Assign rand_sets[14]: 1505  LLC: 2048
rand_sets[14]: 1505
Assign rand_sets[15]: 1159  LLC: 2048
rand_sets[15]: 1159
Assign rand_sets[16]: 513  LLC: 2048
rand_sets[16]: 513
Assign rand_sets[17]: 703  LLC: 2048
rand_sets[17]: 703
Assign rand_sets[18]: 561  LLC: 2048
rand_sets[18]: 561
Assign rand_sets[19]: 990  LLC: 2048
rand_sets[19]: 990
Assign rand_sets[20]: 342  LLC: 2048
rand_sets[20]: 342
Assign rand_sets[21]: 882  LLC: 2048
rand_sets[21]: 882
Assign rand_sets[22]: 15  LLC: 2048
rand_sets[22]: 15
Assign rand_sets[23]: 71  LLC: 2048
rand_sets[23]: 71
Assign rand_sets[24]: 1127  LLC: 2048
rand_sets[24]: 1127
Assign rand_sets[25]: 1382  LLC: 2048
rand_sets[25]: 1382
Assign rand_sets[26]: 647  LLC: 2048
rand_sets[26]: 647
Assign rand_sets[27]: 857  LLC: 2048
rand_sets[27]: 857
Assign rand_sets[28]: 1450  LLC: 2048
rand_sets[28]: 1450
Assign rand_sets[29]: 1160  LLC: 2048
rand_sets[29]: 1160
Assign rand_sets[30]: 1852  LLC: 2048
rand_sets[30]: 1852
Assign rand_sets[31]: 1881  LLC: 2048
rand_sets[31]: 1881
Assign rand_sets[32]: 1770  LLC: 2048
rand_sets[32]: 1770
Assign rand_sets[33]: 1622  LLC: 2048
rand_sets[33]: 1622
Assign rand_sets[34]: 275  LLC: 2048
rand_sets[34]: 275
Assign rand_sets[35]: 635  LLC: 2048
rand_sets[35]: 635
Assign rand_sets[36]: 466  LLC: 2048
rand_sets[36]: 466
Assign rand_sets[37]: 1413  LLC: 2048
rand_sets[37]: 1413
Assign rand_sets[38]: 417  LLC: 2048
rand_sets[38]: 417
Assign rand_sets[39]: 472  LLC: 2048
rand_sets[39]: 472
Assign rand_sets[40]: 1340  LLC: 2048
rand_sets[40]: 1340
Assign rand_sets[41]: 852  LLC: 2048
rand_sets[41]: 852
Assign rand_sets[42]: 1365  LLC: 2048
rand_sets[42]: 1365
Assign rand_sets[43]: 47  LLC: 2048
rand_sets[43]: 47
Assign rand_sets[44]: 823  LLC: 2048
rand_sets[44]: 823
Assign rand_sets[45]: 686  LLC: 2048
rand_sets[45]: 686
Assign rand_sets[46]: 1637  LLC: 2048
rand_sets[46]: 1637
Assign rand_sets[47]: 1115  LLC: 2048
rand_sets[47]: 1115
Assign rand_sets[48]: 986  LLC: 2048
rand_sets[48]: 986
Assign rand_sets[49]: 258  LLC: 2048
rand_sets[49]: 258
Assign rand_sets[50]: 633  LLC: 2048
rand_sets[50]: 633
Assign rand_sets[51]: 920  LLC: 2048
rand_sets[51]: 920
Assign rand_sets[52]: 204  LLC: 2048
rand_sets[52]: 204
Assign rand_sets[53]: 227  LLC: 2048
rand_sets[53]: 227
Assign rand_sets[54]: 1818  LLC: 2048
rand_sets[54]: 1818
Assign rand_sets[55]: 886  LLC: 2048
rand_sets[55]: 886
Assign rand_sets[56]: 1422  LLC: 2048
rand_sets[56]: 1422
Assign rand_sets[57]: 607  LLC: 2048
rand_sets[57]: 607
Assign rand_sets[58]: 217  LLC: 2048
rand_sets[58]: 217
Assign rand_sets[59]: 1945  LLC: 2048
rand_sets[59]: 1945
Assign rand_sets[60]: 143  LLC: 2048
rand_sets[60]: 143
Assign rand_sets[61]: 1311  LLC: 2048
rand_sets[61]: 1311
Assign rand_sets[62]: 319  LLC: 2048
rand_sets[62]: 319
Assign rand_sets[63]: 1846  LLC: 2048
rand_sets[63]: 1846
Heartbeat CPU 0 instructions: 10000001 cycles: 3444164 heartbeat IPC: 2.90346 cumulative IPC: 2.90346 (Simulation time: 0 hr 0 min 15 sec) 
Heartbeat CPU 0 instructions: 20000000 cycles: 6895111 heartbeat IPC: 2.89775 cumulative IPC: 2.90061 (Simulation time: 0 hr 0 min 36 sec) 
Heartbeat CPU 0 instructions: 30000003 cycles: 10279819 heartbeat IPC: 2.95447 cumulative IPC: 2.91834 (Simulation time: 0 hr 0 min 55 sec) 
Heartbeat CPU 0 instructions: 40000000 cycles: 13662367 heartbeat IPC: 2.95635 cumulative IPC: 2.92775 (Simulation time: 0 hr 1 min 13 sec) 
Heartbeat CPU 0 instructions: 50000002 cycles: 17048468 heartbeat IPC: 2.95325 cumulative IPC: 2.93282 (Simulation time: 0 hr 1 min 31 sec) 
Heartbeat CPU 0 instructions: 60000001 cycles: 20462690 heartbeat IPC: 2.92892 cumulative IPC: 2.93217 (Simulation time: 0 hr 1 min 47 sec) 
Heartbeat CPU 0 instructions: 70000000 cycles: 23875195 heartbeat IPC: 2.9304 cumulative IPC: 2.93191 (Simulation time: 0 hr 2 min 4 sec) 
Heartbeat CPU 0 instructions: 80000000 cycles: 27286470 heartbeat IPC: 2.93146 cumulative IPC: 2.93186 (Simulation time: 0 hr 2 min 20 sec) 
Heartbeat CPU 0 instructions: 90000001 cycles: 30698485 heartbeat IPC: 2.93082 cumulative IPC: 2.93174 (Simulation time: 0 hr 2 min 37 sec) 
Heartbeat CPU 0 instructions: 100000003 cycles: 34101062 heartbeat IPC: 2.93895 cumulative IPC: 2.93246 (Simulation time: 0 hr 2 min 53 sec) 

Warmup complete CPU 0 instructions: 100000003 cycles: 34101062 (Simulation time: 0 hr 2 min 53 sec) 

Heartbeat CPU 0 instructions: 110000000 cycles: 42436265 heartbeat IPC: 1.19973 cumulative IPC: 1.19973 (Simulation time: 0 hr 3 min 5 sec) 
Heartbeat CPU 0 instructions: 120000000 cycles: 50779662 heartbeat IPC: 1.19855 cumulative IPC: 1.19914 (Simulation time: 0 hr 3 min 16 sec) 
Heartbeat CPU 0 instructions: 130000001 cycles: 59124488 heartbeat IPC: 1.19835 cumulative IPC: 1.19888 (Simulation time: 0 hr 3 min 28 sec) 
Heartbeat CPU 0 instructions: 140000002 cycles: 67467910 heartbeat IPC: 1.19855 cumulative IPC: 1.19879 (Simulation time: 0 hr 3 min 39 sec) 
Heartbeat CPU 0 instructions: 150000003 cycles: 75806044 heartbeat IPC: 1.19931 cumulative IPC: 1.1989 (Simulation time: 0 hr 3 min 51 sec) 
Heartbeat CPU 0 instructions: 160000002 cycles: 84135582 heartbeat IPC: 1.20055 cumulative IPC: 1.19917 (Simulation time: 0 hr 4 min 2 sec) 
Heartbeat CPU 0 instructions: 170000000 cycles: 92471372 heartbeat IPC: 1.19965 cumulative IPC: 1.19924 (Simulation time: 0 hr 4 min 14 sec) 
Heartbeat CPU 0 instructions: 180000003 cycles: 100799341 heartbeat IPC: 1.20077 cumulative IPC: 1.19943 (Simulation time: 0 hr 4 min 24 sec) 
Heartbeat CPU 0 instructions: 190000003 cycles: 109129625 heartbeat IPC: 1.20044 cumulative IPC: 1.19954 (Simulation time: 0 hr 4 min 34 sec) 
Heartbeat CPU 0 instructions: 200000001 cycles: 117458216 heartbeat IPC: 1.20068 cumulative IPC: 1.19966 (Simulation time: 0 hr 4 min 47 sec) 
Finished CPU 0 instructions: 100000001 cycles: 83357160 cumulative IPC: 1.19966 (Simulation time: 0 hr 4 min 47 sec) 

ChampSim completed all CPUs

Region of Interest Statistics

CPU 0 cumulative IPC: 1.19966 instructions: 100000001 cycles: 83357160
L1D TOTAL     ACCESS:   19618908  HIT:   19611546  MISS:       7362
L1D LOAD      ACCESS:   16245465  HIT:   16244698  MISS:        767
L1D RFO       ACCESS:    3373443  HIT:    3366848  MISS:       6595
L1D PREFETCH  ACCESS:          0  HIT:          0  MISS:          0
L1D WRITEBACK ACCESS:          0  HIT:          0  MISS:          0
L1D PREFETCH  REQUESTED:          0  ISSUED:          0  USEFUL:          0  USELESS:          0
L1D AVERAGE MISS LATENCY: 212.41 cycles
L1I TOTAL     ACCESS:   21552752  HIT:   21552752  MISS:          0
L1I LOAD      ACCESS:   21552752  HIT:   21552752  MISS:          0
L1I RFO       ACCESS:          0  HIT:          0  MISS:          0
L1I PREFETCH  ACCESS:          0  HIT:          0  MISS:          0
L1I WRITEBACK ACCESS:          0  HIT:          0  MISS:          0
L1I PREFETCH  REQUESTED:          0  ISSUED:          0  USEFUL:          0  USELESS:          0
L1I AVERAGE MISS LATENCY: -nan cycles
L2C TOTAL     ACCESS:      13959  HIT:       6721  MISS:       7238
L2C LOAD      ACCESS:        767  HIT:        106  MISS:        661
L2C RFO       ACCESS:       6595  HIT:         19  MISS:       6576
L2C PREFETCH  ACCESS:          0  HIT:          0  MISS:          0
L2C WRITEBACK ACCESS:       6597  HIT:       6596  MISS:          1
L2C PREFETCH  REQUESTED:          0  ISSUED:          0  USEFUL:          0  USELESS:          0
L2C AVERAGE MISS LATENCY: 200.317 cycles
LLC TOTAL     ACCESS:      13757  HIT:       6428  MISS:       7329
LLC LOAD      ACCESS:        661  HIT:          3  MISS:        658
LLC RFO       ACCESS:       6576  HIT:          0  MISS:       6576
LLC PREFETCH  ACCESS:          0  HIT:          0  MISS:          0
LLC WRITEBACK ACCESS:       6520  HIT:       6425  MISS:         95
LLC PREFETCH  REQUESTED:          0  ISSUED:          0  USEFUL:          0  USELESS:          0
LLC AVERAGE MISS LATENCY: 167.221 cycles
Major fault: 0 Minor fault: 1317

DRAM Statistics
 CHANNEL 0
 RQ ROW_BUFFER_HIT:        491  ROW_BUFFER_MISS:       6743
 DBUS_CONGESTED:       5278
 WQ ROW_BUFFER_HIT:       1977  ROW_BUFFER_MISS:       4890  FULL:          0

 AVG_CONGESTED_CYCLE: 6

CPU 0 Branch Prediction Accuracy: 87.5647% MPKI: 18.0781 Average ROB Occupancy at Mispredict: 19.9983

Branch types
NOT_BRANCH: 85462310 85.4623%
BRANCH_DIRECT_JUMP: 1074199 1.0742%
BRANCH_INDIRECT: 83005 0.083005%
BRANCH_CONDITIONAL: 13134765 13.1348%
BRANCH_DIRECT_CALL: 122900 0.1229%
BRANCH_INDIRECT_CALL: 0 0%
BRANCH_RETURN: 122901 0.122901%
BRANCH_OTHER: 0 0%

