Initialize SIGNATURE TABLE
ST_SET: 1
ST_WAY: 256
ST_TAG_BIT: 16
ST_TAG_MASK: ffff

Initialize PATTERN TABLE
PT_SET: 512
PT_WAY: 4
SIG_DELTA_BIT: 7
C_SIG_BIT: 4
C_DELTA_BIT: 4

Initialize PREFETCH FILTER
FILTER_SET: 1024

*** ChampSim Multicore Out-of-Order Simulator ***

Warmup Instructions: 100000000
Simulation Instructions: 100000000
Number of CPUs: 1
LLC sets: 2048
LLC ways: 16
Off-chip DRAM Size: 4096 MB Channels: 1 Width: 64-bit Data Rate: 3200 MT/s

CPU 0 runs /home/shubhayu/ChampSim/traces/625.x264_s-20B.champsimtrace.xz
CPU 0 GSHARE branch predictor
CPU 0 L1I next line prefetcher
CPU 0 L1D next line prefetcher
Initialize BIP state

LLC Next Line Prefetcher
Heartbeat CPU 0 instructions: 10000002 cycles: 3225786 heartbeat IPC: 3.10002 cumulative IPC: 3.10002 (Simulation time: 0 hr 0 min 15 sec) 
Heartbeat CPU 0 instructions: 20000002 cycles: 6562063 heartbeat IPC: 2.99735 cumulative IPC: 3.04782 (Simulation time: 0 hr 0 min 31 sec) 
Heartbeat CPU 0 instructions: 30000001 cycles: 9903088 heartbeat IPC: 2.99309 cumulative IPC: 3.02936 (Simulation time: 0 hr 0 min 47 sec) 
Heartbeat CPU 0 instructions: 40000001 cycles: 13244128 heartbeat IPC: 2.99308 cumulative IPC: 3.02021 (Simulation time: 0 hr 1 min 4 sec) 
Heartbeat CPU 0 instructions: 50000001 cycles: 16582588 heartbeat IPC: 2.99539 cumulative IPC: 3.01521 (Simulation time: 0 hr 1 min 20 sec) 
Heartbeat CPU 0 instructions: 60000000 cycles: 19923677 heartbeat IPC: 2.99304 cumulative IPC: 3.01149 (Simulation time: 0 hr 1 min 36 sec) 
Heartbeat CPU 0 instructions: 70000003 cycles: 23266215 heartbeat IPC: 2.99174 cumulative IPC: 3.00865 (Simulation time: 0 hr 1 min 52 sec) 
Heartbeat CPU 0 instructions: 80000000 cycles: 26610132 heartbeat IPC: 2.9905 cumulative IPC: 3.00637 (Simulation time: 0 hr 2 min 8 sec) 
Heartbeat CPU 0 instructions: 90000001 cycles: 30152603 heartbeat IPC: 2.82289 cumulative IPC: 2.98482 (Simulation time: 0 hr 2 min 25 sec) 
Heartbeat CPU 0 instructions: 100000002 cycles: 33765413 heartbeat IPC: 2.76793 cumulative IPC: 2.96161 (Simulation time: 0 hr 2 min 44 sec) 

Warmup complete CPU 0 instructions: 100000002 cycles: 33765413 (Simulation time: 0 hr 2 min 44 sec) 

Heartbeat CPU 0 instructions: 110000000 cycles: 40043710 heartbeat IPC: 1.59279 cumulative IPC: 1.59279 (Simulation time: 0 hr 2 min 53 sec) 
Heartbeat CPU 0 instructions: 120000002 cycles: 45903533 heartbeat IPC: 1.70654 cumulative IPC: 1.6477 (Simulation time: 0 hr 5 min 11 sec) 
Heartbeat CPU 0 instructions: 130000000 cycles: 51740248 heartbeat IPC: 1.71329 cumulative IPC: 1.669 (Simulation time: 0 hr 5 min 23 sec) 
Heartbeat CPU 0 instructions: 140000002 cycles: 57575442 heartbeat IPC: 1.71374 cumulative IPC: 1.67996 (Simulation time: 0 hr 5 min 34 sec) 
Heartbeat CPU 0 instructions: 150000003 cycles: 63395376 heartbeat IPC: 1.71823 cumulative IPC: 1.68748 (Simulation time: 0 hr 5 min 46 sec) 
Heartbeat CPU 0 instructions: 160000000 cycles: 69229881 heartbeat IPC: 1.71394 cumulative IPC: 1.69183 (Simulation time: 0 hr 5 min 58 sec) 
Heartbeat CPU 0 instructions: 170000000 cycles: 75048544 heartbeat IPC: 1.71861 cumulative IPC: 1.69561 (Simulation time: 0 hr 6 min 9 sec) 
Heartbeat CPU 0 instructions: 180000000 cycles: 80886944 heartbeat IPC: 1.7128 cumulative IPC: 1.69774 (Simulation time: 0 hr 6 min 21 sec) 
Heartbeat CPU 0 instructions: 190000000 cycles: 86727764 heartbeat IPC: 1.71209 cumulative IPC: 1.69932 (Simulation time: 0 hr 6 min 33 sec) 
Heartbeat CPU 0 instructions: 200000002 cycles: 92589899 heartbeat IPC: 1.70586 cumulative IPC: 1.69997 (Simulation time: 0 hr 6 min 45 sec) 
Finished CPU 0 instructions: 100000000 cycles: 58824486 cumulative IPC: 1.69997 (Simulation time: 0 hr 6 min 45 sec) 

ChampSim completed all CPUs

Region of Interest Statistics

CPU 0 cumulative IPC: 1.69997 instructions: 100000000 cycles: 58824486
L1D TOTAL     ACCESS:   22913968  HIT:   22856887  MISS:      57081
L1D LOAD      ACCESS:    7976796  HIT:    7955285  MISS:      21511
L1D RFO       ACCESS:    7092409  HIT:    7084207  MISS:       8202
L1D PREFETCH  ACCESS:    7844763  HIT:    7817395  MISS:      27368
L1D WRITEBACK ACCESS:          0  HIT:          0  MISS:          0
L1D PREFETCH  REQUESTED:    7983808  ISSUED:    7931373  USEFUL:      24412  USELESS:       2875
L1D AVERAGE MISS LATENCY: 120.098 cycles
L1I TOTAL     ACCESS:   16003027  HIT:   16002596  MISS:        431
L1I LOAD      ACCESS:   16002876  HIT:   16002582  MISS:        294
L1I RFO       ACCESS:          0  HIT:          0  MISS:          0
L1I PREFETCH  ACCESS:        151  HIT:         14  MISS:        137
L1I WRITEBACK ACCESS:          0  HIT:          0  MISS:          0
L1I PREFETCH  REQUESTED:        434  ISSUED:        434  USEFUL:        112  USELESS:         55
L1I AVERAGE MISS LATENCY: 98.0046 cycles
L2C TOTAL     ACCESS:      82946  HIT:      26416  MISS:      56530
L2C LOAD      ACCESS:      21584  HIT:       1902  MISS:      19682
L2C RFO       ACCESS:       7924  HIT:         21  MISS:       7903
L2C PREFETCH  ACCESS:      44483  HIT:      15562  MISS:      28921
L2C WRITEBACK ACCESS:       8955  HIT:       8931  MISS:         24
L2C PREFETCH  REQUESTED:     123883  ISSUED:     123780  USEFUL:       1105  USELESS:      30922
L2C AVERAGE MISS LATENCY: 113.506 cycles
LLC TOTAL     ACCESS:     219060  HIT:     154834  MISS:      64226
LLC LOAD      ACCESS:      18126  HIT:       8746  MISS:       9380
LLC RFO       ACCESS:       7903  HIT:        516  MISS:       7387
LLC PREFETCH  ACCESS:     180706  HIT:     145000  MISS:      35706
LLC WRITEBACK ACCESS:      12325  HIT:        572  MISS:      11753
LLC PREFETCH  REQUESTED:     122685  ISSUED:     121078  USEFUL:       8372  USELESS:      28203
LLC AVERAGE MISS LATENCY: 159.855 cycles
Major fault: 0 Minor fault: 4559
CPU 0 L1I next line prefetcher final stats
CPU 0 L1D next line prefetcher final stats
LLC Next Line Prefetcher Final Stats: none

DRAM Statistics
 CHANNEL 0
 RQ ROW_BUFFER_HIT:      30066  ROW_BUFFER_MISS:      22377
 DBUS_CONGESTED:      24399
 WQ ROW_BUFFER_HIT:       2379  ROW_BUFFER_MISS:       9831  FULL:          0

 AVG_CONGESTED_CYCLE: 6

CPU 0 Branch Prediction Accuracy: 98.5134% MPKI: 0.47522 Average ROB Occupancy at Mispredict: 76.563

Branch types
NOT_BRANCH: 96802967 96.803%
BRANCH_DIRECT_JUMP: 47694 0.047694%
BRANCH_INDIRECT: 3716 0.003716%
BRANCH_CONDITIONAL: 2523990 2.52399%
BRANCH_DIRECT_CALL: 152189 0.152189%
BRANCH_INDIRECT_CALL: 158457 0.158457%
BRANCH_RETURN: 310639 0.310639%
BRANCH_OTHER: 0 0%

