Initialize SIGNATURE TABLE
ST_SET: 1
ST_WAY: 256
ST_TAG_BIT: 16
ST_TAG_MASK: ffff

Initialize PATTERN TABLE
PT_SET: 512
PT_WAY: 4
SIG_DELTA_BIT: 7
C_SIG_BIT: 4
C_DELTA_BIT: 4

Initialize PREFETCH FILTER
FILTER_SET: 1024

*** ChampSim Multicore Out-of-Order Simulator ***

Warmup Instructions: 100000000
Simulation Instructions: 100000000
Number of CPUs: 1
LLC sets: 2048
LLC ways: 16
Off-chip DRAM Size: 4096 MB Channels: 1 Width: 64-bit Data Rate: 3200 MT/s

CPU 0 runs /home/shubhayu/ChampSim/traces/400.perlbench-41B.champsimtrace.xz
CPU 0 GSHARE branch predictor
CPU 0 L1I next line prefetcher
CPU 0 L1D next line prefetcher
Initialize DRRIP state
Assign rand_sets[0]: 454  LLC: 2048
rand_sets[0]: 454
Assign rand_sets[1]: 1662  LLC: 2048
rand_sets[1]: 1662
Assign rand_sets[2]: 1921  LLC: 2048
rand_sets[2]: 1921
Assign rand_sets[3]: 1131  LLC: 2048
rand_sets[3]: 1131
Assign rand_sets[4]: 331  LLC: 2048
rand_sets[4]: 331
Assign rand_sets[5]: 1531  LLC: 2048
rand_sets[5]: 1531
Assign rand_sets[6]: 482  LLC: 2048
rand_sets[6]: 482
Assign rand_sets[7]: 1275  LLC: 2048
rand_sets[7]: 1275
Assign rand_sets[8]: 1876  LLC: 2048
rand_sets[8]: 1876
Assign rand_sets[9]: 2038  LLC: 2048
rand_sets[9]: 2038
Assign rand_sets[10]: 701  LLC: 2048
rand_sets[10]: 701
Assign rand_sets[11]: 479  LLC: 2048
rand_sets[11]: 479
Assign rand_sets[12]: 892  LLC: 2048
rand_sets[12]: 892
Assign rand_sets[13]: 1820  LLC: 2048
rand_sets[13]: 1820
Assign rand_sets[14]: 1505  LLC: 2048
rand_sets[14]: 1505
Assign rand_sets[15]: 1159  LLC: 2048
rand_sets[15]: 1159
Assign rand_sets[16]: 513  LLC: 2048
rand_sets[16]: 513
Assign rand_sets[17]: 703  LLC: 2048
rand_sets[17]: 703
Assign rand_sets[18]: 561  LLC: 2048
rand_sets[18]: 561
Assign rand_sets[19]: 990  LLC: 2048
rand_sets[19]: 990
Assign rand_sets[20]: 342  LLC: 2048
rand_sets[20]: 342
Assign rand_sets[21]: 882  LLC: 2048
rand_sets[21]: 882
Assign rand_sets[22]: 15  LLC: 2048
rand_sets[22]: 15
Assign rand_sets[23]: 71  LLC: 2048
rand_sets[23]: 71
Assign rand_sets[24]: 1127  LLC: 2048
rand_sets[24]: 1127
Assign rand_sets[25]: 1382  LLC: 2048
rand_sets[25]: 1382
Assign rand_sets[26]: 647  LLC: 2048
rand_sets[26]: 647
Assign rand_sets[27]: 857  LLC: 2048
rand_sets[27]: 857
Assign rand_sets[28]: 1450  LLC: 2048
rand_sets[28]: 1450
Assign rand_sets[29]: 1160  LLC: 2048
rand_sets[29]: 1160
Assign rand_sets[30]: 1852  LLC: 2048
rand_sets[30]: 1852
Assign rand_sets[31]: 1881  LLC: 2048
rand_sets[31]: 1881
Assign rand_sets[32]: 1770  LLC: 2048
rand_sets[32]: 1770
Assign rand_sets[33]: 1622  LLC: 2048
rand_sets[33]: 1622
Assign rand_sets[34]: 275  LLC: 2048
rand_sets[34]: 275
Assign rand_sets[35]: 635  LLC: 2048
rand_sets[35]: 635
Assign rand_sets[36]: 466  LLC: 2048
rand_sets[36]: 466
Assign rand_sets[37]: 1413  LLC: 2048
rand_sets[37]: 1413
Assign rand_sets[38]: 417  LLC: 2048
rand_sets[38]: 417
Assign rand_sets[39]: 472  LLC: 2048
rand_sets[39]: 472
Assign rand_sets[40]: 1340  LLC: 2048
rand_sets[40]: 1340
Assign rand_sets[41]: 852  LLC: 2048
rand_sets[41]: 852
Assign rand_sets[42]: 1365  LLC: 2048
rand_sets[42]: 1365
Assign rand_sets[43]: 47  LLC: 2048
rand_sets[43]: 47
Assign rand_sets[44]: 823  LLC: 2048
rand_sets[44]: 823
Assign rand_sets[45]: 686  LLC: 2048
rand_sets[45]: 686
Assign rand_sets[46]: 1637  LLC: 2048
rand_sets[46]: 1637
Assign rand_sets[47]: 1115  LLC: 2048
rand_sets[47]: 1115
Assign rand_sets[48]: 986  LLC: 2048
rand_sets[48]: 986
Assign rand_sets[49]: 258  LLC: 2048
rand_sets[49]: 258
Assign rand_sets[50]: 633  LLC: 2048
rand_sets[50]: 633
Assign rand_sets[51]: 920  LLC: 2048
rand_sets[51]: 920
Assign rand_sets[52]: 204  LLC: 2048
rand_sets[52]: 204
Assign rand_sets[53]: 227  LLC: 2048
rand_sets[53]: 227
Assign rand_sets[54]: 1818  LLC: 2048
rand_sets[54]: 1818
Assign rand_sets[55]: 886  LLC: 2048
rand_sets[55]: 886
Assign rand_sets[56]: 1422  LLC: 2048
rand_sets[56]: 1422
Assign rand_sets[57]: 607  LLC: 2048
rand_sets[57]: 607
Assign rand_sets[58]: 217  LLC: 2048
rand_sets[58]: 217
Assign rand_sets[59]: 1945  LLC: 2048
rand_sets[59]: 1945
Assign rand_sets[60]: 143  LLC: 2048
rand_sets[60]: 143
Assign rand_sets[61]: 1311  LLC: 2048
rand_sets[61]: 1311
Assign rand_sets[62]: 319  LLC: 2048
rand_sets[62]: 319
Assign rand_sets[63]: 1846  LLC: 2048
rand_sets[63]: 1846
LLC Next Line Prefetcher
Heartbeat CPU 0 instructions: 10000003 cycles: 4817360 heartbeat IPC: 2.07583 cumulative IPC: 2.07583 (Simulation time: 0 hr 0 min 20 sec) 
Heartbeat CPU 0 instructions: 20000001 cycles: 9586323 heartbeat IPC: 2.09689 cumulative IPC: 2.08631 (Simulation time: 0 hr 0 min 40 sec) 
Heartbeat CPU 0 instructions: 30000001 cycles: 13889636 heartbeat IPC: 2.32379 cumulative IPC: 2.15988 (Simulation time: 0 hr 1 min 0 sec) 
Heartbeat CPU 0 instructions: 40000001 cycles: 18477669 heartbeat IPC: 2.17958 cumulative IPC: 2.16478 (Simulation time: 0 hr 1 min 20 sec) 
Heartbeat CPU 0 instructions: 50000003 cycles: 22964978 heartbeat IPC: 2.22851 cumulative IPC: 2.17723 (Simulation time: 0 hr 1 min 40 sec) 
Heartbeat CPU 0 instructions: 60000000 cycles: 26919338 heartbeat IPC: 2.52885 cumulative IPC: 2.22888 (Simulation time: 0 hr 2 min 0 sec) 
Heartbeat CPU 0 instructions: 70000003 cycles: 31299541 heartbeat IPC: 2.283 cumulative IPC: 2.23645 (Simulation time: 0 hr 2 min 19 sec) 
Heartbeat CPU 0 instructions: 80000000 cycles: 35552461 heartbeat IPC: 2.35133 cumulative IPC: 2.2502 (Simulation time: 0 hr 2 min 38 sec) 
Heartbeat CPU 0 instructions: 90000000 cycles: 39845918 heartbeat IPC: 2.32913 cumulative IPC: 2.2587 (Simulation time: 0 hr 2 min 58 sec) 
Heartbeat CPU 0 instructions: 100000001 cycles: 44219011 heartbeat IPC: 2.28671 cumulative IPC: 2.26147 (Simulation time: 0 hr 3 min 17 sec) 

Warmup complete CPU 0 instructions: 100000001 cycles: 44219011 (Simulation time: 0 hr 3 min 17 sec) 

Heartbeat CPU 0 instructions: 110000000 cycles: 54121102 heartbeat IPC: 1.00989 cumulative IPC: 1.00989 (Simulation time: 0 hr 3 min 34 sec) 
Heartbeat CPU 0 instructions: 120000001 cycles: 64425776 heartbeat IPC: 0.970434 cumulative IPC: 0.989768 (Simulation time: 0 hr 3 min 52 sec) 
Heartbeat CPU 0 instructions: 130000000 cycles: 75042039 heartbeat IPC: 0.941951 cumulative IPC: 0.973298 (Simulation time: 0 hr 4 min 12 sec) 
Heartbeat CPU 0 instructions: 140000002 cycles: 85069990 heartbeat IPC: 0.997213 cumulative IPC: 0.979169 (Simulation time: 0 hr 4 min 29 sec) 
Heartbeat CPU 0 instructions: 150000001 cycles: 95042641 heartbeat IPC: 1.00274 cumulative IPC: 0.983794 (Simulation time: 0 hr 4 min 48 sec) 
Heartbeat CPU 0 instructions: 160000000 cycles: 105209926 heartbeat IPC: 0.983547 cumulative IPC: 0.983753 (Simulation time: 0 hr 5 min 7 sec) 
Heartbeat CPU 0 instructions: 170000000 cycles: 119224292 heartbeat IPC: 0.713553 cumulative IPC: 0.933268 (Simulation time: 0 hr 5 min 27 sec) 
Heartbeat CPU 0 instructions: 180000001 cycles: 134633751 heartbeat IPC: 0.648952 cumulative IPC: 0.884811 (Simulation time: 0 hr 5 min 48 sec) 
Heartbeat CPU 0 instructions: 190000000 cycles: 150221105 heartbeat IPC: 0.641546 cumulative IPC: 0.84904 (Simulation time: 0 hr 6 min 20 sec) 
Heartbeat CPU 0 instructions: 200000003 cycles: 160029177 heartbeat IPC: 1.01957 cumulative IPC: 0.863482 (Simulation time: 0 hr 6 min 41 sec) 
Finished CPU 0 instructions: 100000002 cycles: 115810166 cumulative IPC: 0.863482 (Simulation time: 0 hr 6 min 41 sec) 

ChampSim completed all CPUs

Region of Interest Statistics

CPU 0 cumulative IPC: 0.863482 instructions: 100000002 cycles: 115810166
L1D TOTAL     ACCESS:   48036282  HIT:   47690758  MISS:     345524
L1D LOAD      ACCESS:   17321637  HIT:   17164435  MISS:     157202
L1D RFO       ACCESS:   13548333  HIT:   13527229  MISS:      21104
L1D PREFETCH  ACCESS:   17166312  HIT:   16999094  MISS:     167218
L1D WRITEBACK ACCESS:          0  HIT:          0  MISS:          0
L1D PREFETCH  REQUESTED:   17328809  ISSUED:   17211956  USEFUL:      64425  USELESS:     102809
L1D AVERAGE MISS LATENCY: 51.2636 cycles
L1I TOTAL     ACCESS:   19657207  HIT:   19398647  MISS:     258560
L1I LOAD      ACCESS:   19529836  HIT:   19364637  MISS:     165199
L1I RFO       ACCESS:          0  HIT:          0  MISS:          0
L1I PREFETCH  ACCESS:     127371  HIT:      34010  MISS:      93361
L1I WRITEBACK ACCESS:          0  HIT:          0  MISS:          0
L1I PREFETCH  REQUESTED:     193538  ISSUED:     193538  USEFUL:      47831  USELESS:      45524
L1I AVERAGE MISS LATENCY: 16.9733 cycles
L2C TOTAL     ACCESS:     927373  HIT:     794119  MISS:     133254
L2C LOAD      ACCESS:     310204  HIT:     250772  MISS:      59432
L2C RFO       ACCESS:      20944  HIT:      14469  MISS:       6475
L2C PREFETCH  ACCESS:     527612  HIT:     460541  MISS:      67071
L2C WRITEBACK ACCESS:      68613  HIT:      68337  MISS:        276
L2C PREFETCH  REQUESTED:     627457  ISSUED:     627457  USEFUL:       4965  USELESS:      62655
L2C AVERAGE MISS LATENCY: 104.283 cycles
LLC TOTAL     ACCESS:     431370  HIT:     287763  MISS:     143607
LLC LOAD      ACCESS:      59432  HIT:      29353  MISS:      30079
LLC RFO       ACCESS:       6475  HIT:       2042  MISS:       4433
LLC PREFETCH  ACCESS:     346115  HIT:     238327  MISS:     107788
LLC WRITEBACK ACCESS:      19348  HIT:      18041  MISS:       1307
LLC PREFETCH  REQUESTED:     259146  ISSUED:     255605  USEFUL:      18202  USELESS:      89555
LLC AVERAGE MISS LATENCY: 154.151 cycles
Major fault: 0 Minor fault: 4638
CPU 0 L1I next line prefetcher final stats
CPU 0 L1D next line prefetcher final stats
LLC Next Line Prefetcher Final Stats: none

DRAM Statistics
 CHANNEL 0
 RQ ROW_BUFFER_HIT:      30011  ROW_BUFFER_MISS:     112289
 DBUS_CONGESTED:      43985
 WQ ROW_BUFFER_HIT:       3722  ROW_BUFFER_MISS:      10928  FULL:          0

 AVG_CONGESTED_CYCLE: 3

CPU 0 Branch Prediction Accuracy: 96.6437% MPKI: 6.94521 Average ROB Occupancy at Mispredict: 59.4882

Branch types
NOT_BRANCH: 79306705 79.3067%
BRANCH_DIRECT_JUMP: 1595158 1.59516%
BRANCH_INDIRECT: 886654 0.886654%
BRANCH_CONDITIONAL: 16112871 16.1129%
BRANCH_DIRECT_CALL: 911129 0.911129%
BRANCH_INDIRECT_CALL: 138180 0.13818%
BRANCH_RETURN: 1049311 1.04931%
BRANCH_OTHER: 0 0%

